STAAD SPACE
START JOB INFORMATION
ENGINEER DATE 26-Sep-24
END JOB INFORMATION
INPUT WIDTH 79
UNIT MMS NEWTON
JOINT COORDINATES
721 0 -2100 0; 722 6000 -2100 0; 723 12000 -2100 0; 724 18000 -2100 0;
725 24000 -2100 0; 726 30000 -2100 0; 727 36000 -2100 0; 728 42000 -2100 0;
729 48000 -2100 0; 730 54000 -2100 0; 731 0 -2100 4000; 732 6000 -2100 4000;
733 12000 -2100 4000; 734 18000 -2100 4000; 735 24000 -2100 4000;
736 30000 -2100 4000; 737 36000 -2100 4000; 738 42000 -2100 4000;
739 48000 -2100 4000; 740 54000 -2100 4000; 741 0 -2100 8000;
742 6000 -2100 8000; 743 12000 -2100 8000; 744 18000 -2100 8000;
745 24000 -2100 8000; 746 30000 -2100 8000; 747 36000 -2100 8000;
748 42000 -2100 8000; 749 48000 -2100 8000; 750 54000 -2100 8000;
751 0 -2100 12000; 752 6000 -2100 12000; 753 12000 -2100 12000;
754 18000 -2100 12000; 755 24000 -2100 12000; 756 30000 -2100 12000;
757 36000 -2100 12000; 758 42000 -2100 12000; 759 48000 -2100 12000;
760 54000 -2100 12000; 761 0 -2100 16000; 762 6000 -2100 16000;
763 12000 -2100 16000; 764 18000 -2100 16000; 765 24000 -2100 16000;
766 30000 -2100 16000; 767 36000 -2100 16000; 768 42000 -2100 16000;
769 48000 -2100 16000; 770 54000 -2100 16000; 771 0 -2100 20000;
772 6000 -2100 20000; 773 12000 -2100 20000; 774 18000 -2100 20000;
775 24000 -2100 20000; 776 30000 -2100 20000; 777 36000 -2100 20000;
778 42000 -2100 20000; 779 48000 -2100 20000; 780 54000 -2100 20000;
781 -2000 -2100 22000; 782 56000 -2100 22000; 783 -2000 -2100 -2000;
# ... 468 like lines cut
MEMBER INCIDENCES
1 771 903; 2 772 908; 3 773 913; 4 774 918; 5 775 923; 6 776 928; 7 777 933;
8 778 938; 9 779 943; 10 780 1006; 11 770 1232; 12 760 1458; 13 750 1684;
14 740 1910; 15 771 952; 16 761 1178; 17 751 1404; 18 741 1630; 19 731 1856;
20 721 2033; 21 722 2038; 22 723 2043; 23 724 2048; 24 725 2053; 25 726 2058;
26 727 2063; 27 728 2068; 28 729 2073; 29 761 1129; 30 762 1134; 31 763 1139;
32 764 1144; 33 765 1149; 34 766 1154; 35 767 1159; 36 768 1164; 37 769 1169;
38 751 1355; 39 752 1360; 40 753 1365; 41 754 1370; 42 755 1375; 43 756 1380;
44 757 1385; 45 758 1390; 46 759 1395; 47 741 1581; 48 742 1586; 49 743 1591;
50 744 1596; 51 745 1601; 52 746 1606; 53 747 1611; 54 748 1616; 55 749 1621;
56 731 1807; 57 732 1812; 58 733 1817; 59 734 1822; 60 735 1827; 61 736 1832;
62 737 1837; 63 738 1842; 64 739 1847; 65 772 958; 66 762 1184; 67 752 1410;
68 742 1636; 69 732 1862; 70 773 964; 71 763 1190; 72 753 1416; 73 743 1642;
74 733 1868; 75 774 970; 76 764 1196; 77 754 1422; 78 744 1648; 79 734 1874;
80 775 976; 81 765 1202; 82 755 1428; 83 745 1654; 84 735 1880; 85 776 982;
86 766 1208; 87 756 1434; 88 746 1660; 89 736 1886; 90 777 988; 91 767 1214;
92 757 1440; 93 747 1666; 94 737 1892; 95 778 994; 96 768 1220; 97 758 1446;
98 748 1672; 99 738 1898; 100 779 1000; 101 769 1226; 102 759 1452;
103 749 1678; 104 739 1904; 165 903 904; 167 904 905; 169 905 906; 171 906 907;
173 907 772; 176 908 909; 178 909 910; 180 910 911; 182 911 912; 184 912 773;
187 913 914; 189 914 915; 191 915 916; 193 916 917; 195 917 774; 198 918 919;
# ... 80 like lines cut
ELEMENT INCIDENCES SHELL
105 781 785 786 787; 106 785 788 789 786; 107 788 790 791 789;
108 790 792 793 791; 109 792 794 795 793; 110 794 796 797 795;
111 796 798 799 797; 112 798 800 801 799; 113 800 802 803 801;
114 802 804 805 803; 115 804 806 807 805; 116 806 808 809 807;
117 808 810 811 809; 118 810 812 813 811; 119 812 814 815 813;
120 814 816 817 815; 121 816 818 819 817; 122 818 820 821 819;
123 820 822 823 821; 124 822 824 825 823; 125 824 826 827 825;
126 826 828 829 827; 127 828 830 831 829; 128 830 832 833 831;
129 832 834 835 833; 130 834 836 837 835; 131 836 838 839 837;
132 838 840 841 839; 133 840 842 843 841; 134 842 844 845 843;
135 844 846 847 845; 136 846 848 849 847; 137 848 850 851 849;
138 850 852 853 851; 139 852 854 855 853; 140 854 856 857 855;
141 856 858 859 857; 142 858 860 861 859; 143 860 862 863 861;
144 862 864 865 863; 145 864 866 867 865; 146 866 868 869 867;
147 868 870 871 869; 148 870 872 873 871; 149 872 874 875 873;
150 874 876 877 875; 151 876 878 879 877; 152 878 880 881 879;
153 880 882 883 881; 154 882 884 885 883; 155 884 886 887 885;
156 886 888 889 887; 157 888 890 891 889; 158 890 892 893 891;
159 892 894 895 893; 160 894 896 897 895; 161 896 898 899 897;
162 898 782 900 899; 163 787 786 901 902; 164 786 789 771 901;
# ... 444 like lines cut
UNIT METER KN
ELEMENT PROPERTY
105 TO 164 166 168 170 172 174 175 177 179 181 183 185 186 188 190 192 194 -
196 197 199 201 203 205 207 208 210 212 214 216 218 219 221 223 225 227 229 -
230 232 234 236 238 240 241 243 245 247 249 251 252 254 256 258 260 -
262 TO 266 268 TO 273 275 TO 280 282 TO 287 289 TO 294 296 TO 301 -
303 TO 308 310 TO 315 317 TO 322 324 TO 329 331 TO 334 336 TO 341 -
343 TO 348 350 TO 355 357 TO 362 364 TO 369 371 TO 376 378 TO 383 -
385 TO 390 392 TO 397 399 TO 402 404 TO 409 411 TO 416 418 TO 423 -
425 TO 430 432 TO 437 439 TO 444 446 TO 451 453 TO 458 460 TO 465 -
467 TO 471 473 475 477 479 481 482 484 486 488 490 492 493 495 497 499 501 -
503 504 506 508 510 512 514 515 517 519 521 523 525 526 528 530 532 534 536 -
537 539 541 543 545 547 548 550 552 554 556 558 559 561 563 565 567 -
569 TO 573 575 TO 580 582 TO 587 589 TO 594 596 TO 601 603 TO 608 -
610 TO 615 617 TO 622 624 TO 629 631 TO 636 638 TO 641 643 TO 648 -
650 TO 655 657 TO 662 664 TO 669 671 TO 676 678 TO 683 685 TO 690 -
692 TO 697 699 TO 704 706 TO 709 711 TO 716 718 TO 723 725 TO 730 -
732 TO 737 739 TO 744 746 THICKNESS 0.6
747 TO 751 753 TO 758 760 TO 765 767 TO 772 774 TO 778 780 782 784 786 788 -
789 791 793 795 797 799 800 802 804 806 808 810 811 813 815 817 819 821 822 -
824 826 828 830 832 833 835 837 839 841 843 844 846 848 850 852 854 855 857 -
859 861 863 865 866 868 870 872 874 876 TO 880 882 TO 887 889 TO 894 896 -
897 TO 901 903 TO 908 910 TO 915 917 TO 922 924 TO 929 931 TO 936 938 TO 943 -
945 TO 948 950 TO 955 957 TO 962 964 TO 969 971 TO 976 978 TO 983 -
985 TO 990 992 TO 997 999 TO 1004 1006 TO 1011 1013 TO 1016 1018 TO 1023 -
1025 TO 1030 1032 TO 1037 1039 TO 1044 1046 TO 1051 1053 TO 1058 -
1060 TO 1065 1067 TO 1072 1074 TO 1079 1081 TO 1085 1087 1089 1091 1093 1095 -
1096 1098 1100 1102 1104 1106 1107 1109 1111 1113 1115 1117 1118 1120 1122 -
1124 1126 1128 1129 1131 1133 1135 1137 1139 1140 1142 1144 1146 1148 1150 -
1151 1153 1155 1157 1159 1161 1162 1164 1166 1168 1170 1172 1173 1175 1177 -
1179 1181 1183 TO 1187 1189 TO 1194 1196 TO 1201 1203 TO 1208 1210 TO 1215 -
1217 TO 1222 1224 TO 1229 1231 TO 1236 1238 TO 1243 1245 TO 1250 -
1252 TO 1255 1257 TO 1262 1264 TO 1269 1271 TO 1276 1278 TO 1283 -
1285 TO 1290 1292 TO 1297 1299 TO 1304 1306 TO 1311 1313 TO 1318 -
1320 TO 1323 1325 TO 1330 1332 THICKNESS 0.6
1333 TO 1337 1339 TO 1344 1346 TO 1351 1353 TO 1358 1360 TO 1365 1367 TO 1372 -
1374 TO 1379 1381 TO 1386 1388 TO 1392 1394 1396 1398 1400 1402 1403 1405 -
1407 1409 1411 1413 1414 1416 1418 1420 1422 1424 1425 1427 1429 1431 1433 -
1435 1436 1438 1440 1442 1444 1446 1447 1449 1451 1453 1455 1457 1458 1460 -
1462 1464 1466 1468 1469 1471 1473 1475 1477 1479 1480 1482 1484 1486 1488 -
1490 TO 1494 1496 TO 1501 1503 TO 1508 1510 TO 1515 1517 TO 1522 -
1524 TO 1529 1531 TO 1536 1538 TO 1543 1545 TO 1550 1552 TO 1557 -
1559 TO 1562 1564 TO 1569 1571 TO 1576 1578 TO 1583 1585 TO 1590 -
1592 TO 1597 1599 TO 1604 1606 TO 1611 1613 TO 1618 1620 TO 1625 -
1627 TO 1630 1632 TO 1637 1639 TO 1644 1646 TO 1651 1653 TO 1658 -
1660 TO 1665 1667 TO 1672 1674 TO 1679 1681 TO 1686 1688 TO 1693 -
1695 TO 1699 1701 1703 1705 1707 1709 1710 1712 1714 1716 1718 1720 1721 -
1723 1725 1727 1729 1731 1732 1734 1736 1738 1740 1742 1743 1745 1747 1749 -
1751 1753 1754 1756 1758 1760 1762 1764 1765 1767 1769 1771 1773 1775 1776 -
1778 1780 1782 1784 1786 1787 1789 1791 1793 1795 1797 TO 1915 -
1916 THICKNESS 0.6
DEFINE MATERIAL START
ISOTROPIC CONCRETE
E 2.17185e+007
POISSON 0.17
DENSITY 23.5616
ALPHA 1e-005
DAMP 0.05
TYPE CONCRETE
STRENGTH FCU 27579
END DEFINE MATERIAL
MEMBER PROPERTY AMERICAN
1 TO 104 165 167 169 171 173 176 178 180 182 184 187 189 191 193 195 198 200 -
202 204 206 209 211 213 215 217 220 222 224 226 228 231 233 235 237 239 242 -
244 246 248 250 253 255 257 259 261 267 274 281 288 295 302 309 316 323 330 -
335 342 349 356 363 370 377 384 391 398 403 410 417 424 431 438 445 452 459 -
466 472 474 476 478 480 483 485 487 489 491 494 496 498 500 502 505 507 509 -
511 513 516 518 520 522 524 527 529 531 533 535 538 540 542 544 546 549 551 -
553 555 557 560 562 564 566 568 574 581 588 595 602 609 616 623 630 637 642 -
649 656 663 670 677 684 691 698 705 710 717 724 731 738 745 752 759 766 773 -
779 781 783 785 787 790 792 794 796 798 801 803 805 807 809 812 814 816 818 -
820 823 825 827 829 831 834 836 838 840 842 845 847 849 851 853 856 858 860 -
862 864 867 869 871 873 875 881 888 895 902 909 916 923 930 937 944 949 956 -
963 970 977 984 991 998 1005 1012 1017 1024 1031 1038 1045 1052 1059 1066 -
1073 1080 1086 1088 1090 1092 1094 1097 1099 1101 1103 1105 1108 1110 1112 -
1114 1116 1119 1121 1123 1125 1127 1130 1132 1134 1136 1138 1141 1143 1145 -
1147 1149 1152 1154 1156 1158 1160 1163 1165 1167 1169 1171 1174 1176 1178 -
1180 1182 1188 1195 1202 1209 1216 1223 1230 PRIS YD 0.85 ZD 0.45
1237 1244 1251 1256 1263 1270 1277 1284 1291 1298 1305 1312 1319 1324 1331 -
1338 1345 1352 1359 1366 1373 1380 1387 1393 1395 1397 1399 1401 1404 1406 -
1408 1410 1412 1415 1417 1419 1421 1423 1426 1428 1430 1432 1434 1437 1439 -
1441 1443 1445 1448 1450 1452 1454 1456 1459 1461 1463 1465 1467 1470 1472 -
1474 1476 1478 1481 1483 1485 1487 1489 1495 1502 1509 1516 1523 1530 1537 -
1544 1551 1558 1563 1570 1577 1584 1591 1598 1605 1612 1619 1626 1631 1638 -
1645 1652 1659 1666 1673 1680 1687 1694 1700 1702 1704 1706 1708 1711 1713 -
1715 1717 1719 1722 1724 1726 1728 1730 1733 1735 1737 1739 1741 1744 1746 -
1748 1750 1752 1755 1757 1759 1761 1763 1766 1768 1770 1772 1774 1777 1779 -
1781 1783 1785 1788 1790 1792 1794 1796 PRIS YD 0.85 ZD 0.45
CONSTANTS
MATERIAL CONCRETE ALL
SUPPORTS
105 TO 164 166 168 170 172 174 175 177 179 181 183 185 186 188 190 192 194 -
196 197 199 201 203 205 207 208 210 212 214 216 218 219 221 223 225 227 229 -
230 232 234 236 238 240 241 243 245 247 249 251 252 254 256 258 260 -
262 TO 266 268 TO 273 275 TO 280 282 TO 287 289 TO 294 296 TO 301 -
303 TO 308 310 TO 315 317 TO 322 324 TO 329 331 TO 334 336 TO 341 -
343 TO 348 350 TO 355 357 TO 362 364 TO 369 371 TO 376 378 TO 383 -
385 TO 390 392 TO 397 399 TO 402 404 TO 409 411 TO 416 418 TO 423 -
425 TO 430 432 TO 437 439 TO 444 446 TO 451 453 TO 458 460 TO 465 -
467 TO 471 473 475 477 479 481 482 484 486 488 490 492 493 495 497 499 501 -
503 504 506 508 510 512 514 515 517 519 521 523 525 526 528 530 532 534 536 -
537 539 541 543 545 547 548 550 552 554 556 558 559 561 563 565 567 -
569 TO 573 575 TO 580 582 TO 587 589 TO 594 596 TO 601 603 TO 608 -
610 TO 615 617 TO 622 624 TO 629 631 TO 636 638 TO 641 643 TO 648 -
650 TO 655 657 TO 662 664 TO 669 671 TO 676 678 TO 683 685 TO 690 -
692 TO 697 699 TO 704 706 TO 709 711 TO 716 718 TO 723 725 TO 730 -
732 TO 737 739 TO 744 746 PLATE MAT DIRECT YONLY SUBGRADE 24000 PRINT
747 TO 751 753 TO 758 760 TO 765 767 TO 772 774 TO 778 780 782 784 786 788 -
789 791 793 795 797 799 800 802 804 806 808 810 811 813 815 817 819 821 822 -
824 826 828 830 832 833 835 837 839 841 843 844 846 848 850 852 854 855 857 -
859 861 863 865 866 868 870 872 874 876 TO 880 882 TO 887 889 TO 894 896 -
897 TO 901 903 TO 908 910 TO 915 917 TO 922 924 TO 929 931 TO 936 938 TO 943 -
945 TO 948 950 TO 955 957 TO 962 964 TO 969 971 TO 976 978 TO 983 -
985 TO 990 992 TO 997 999 TO 1004 1006 TO 1011 1013 TO 1016 1018 TO 1023 -
1025 TO 1030 1032 TO 1037 1039 TO 1044 1046 TO 1051 1053 TO 1058 -
1060 TO 1065 1067 TO 1072 1074 TO 1079 1081 TO 1085 1087 1089 1091 1093 1095 -
1096 1098 1100 1102 1104 1106 1107 1109 1111 1113 1115 1117 1118 1120 1122 -
1124 1126 1128 1129 1131 1133 1135 1137 1139 1140 1142 1144 1146 1148 1150 -
1151 1153 1155 1157 1159 1161 1162 1164 1166 1168 1170 1172 1173 1175 1177 -
1179 1181 1183 TO 1187 1189 TO 1194 1196 TO 1201 1203 TO 1208 1210 TO 1215 -
1217 TO 1222 1224 TO 1229 1231 TO 1236 1238 TO 1243 1245 TO 1250 -
1252 TO 1255 1257 TO 1262 1264 TO 1269 1271 TO 1276 1278 TO 1283 -
1285 TO 1290 1292 TO 1297 1299 TO 1304 1306 TO 1311 1313 TO 1318 -
1320 TO 1323 1325 TO 1330 1332 PLATE MAT DIRECT YONLY SUBGRADE 24000 PRINT
1333 TO 1337 1339 TO 1344 1346 TO 1351 1353 TO 1358 1360 TO 1365 1367 TO 1372 -
1374 TO 1379 1381 TO 1386 1388 TO 1392 1394 1396 1398 1400 1402 1403 1405 -
1407 1409 1411 1413 1414 1416 1418 1420 1422 1424 1425 1427 1429 1431 1433 -
1435 1436 1438 1440 1442 1444 1446 1447 1449 1451 1453 1455 1457 1458 1460 -
1462 1464 1466 1468 1469 1471 1473 1475 1477 1479 1480 1482 1484 1486 1488 -
1490 TO 1494 1496 TO 1501 1503 TO 1508 1510 TO 1515 1517 TO 1522 -
1524 TO 1529 1531 TO 1536 1538 TO 1543 1545 TO 1550 1552 TO 1557 -
1559 TO 1562 1564 TO 1569 1571 TO 1576 1578 TO 1583 1585 TO 1590 -
1592 TO 1597 1599 TO 1604 1606 TO 1611 1613 TO 1618 1620 TO 1625 -
1627 TO 1630 1632 TO 1637 1639 TO 1644 1646 TO 1651 1653 TO 1658 -
1660 TO 1665 1667 TO 1672 1674 TO 1679 1681 TO 1686 1688 TO 1693 -
1695 TO 1699 1701 1703 1705 1707 1709 1710 1712 1714 1716 1718 1720 1721 -
1723 1725 1727 1729 1731 1732 1734 1736 1738 1740 1742 1743 1745 1747 1749 -
1751 1753 1754 1756 1758 1760 1762 1764 1765 1767 1769 1771 1773 1775 1776 -
1778 1780 1782 1784 1786 1787 1789 1791 1793 1795 1797 TO 1915 -
1916 PLATE MAT DIRECT YONLY SUBGRADE 24000 PRINT
LOAD 1 LOADTYPE Dead  TITLE DL
SELFWEIGHT Y -1 
LOAD 2 LOADTYPE Live  TITLE DL+LL
JOINT LOAD
721 FX -24.851 FY -1609.13 FZ -10.531 MX -6.876 MY 0 MZ 16.215
722 FX 0.005 FY -2294.85 FZ -8.504 MX -5.564 MY 0 MZ 0.127
723 FX -0.115 FY -2308.6 FZ -8.487 MX -5.554 MY 0 MZ 0.156
724 FX -0.055 FY -2308.69 FZ -8.486 MX -5.554 MY 0 MZ 0.08
725 FX -0.017 FY -2308.69 FZ -8.486 MX -5.554 MY 0 MZ 0.025
726 FX 0.017 FY -2308.69 FZ -8.486 MX -5.554 MY 0 MZ -0.025
727 FX 0.055 FY -2308.69 FZ -8.486 MX -5.554 MY 0 MZ -0.08
728 FX 0.115 FY -2308.6 FZ -8.487 MX -5.554 MY 0 MZ -0.156
729 FX -0.005 FY -2294.85 FZ -8.504 MX -5.564 MY 0 MZ -0.127
730 FX 24.851 FY -1609.13 FZ -10.531 MX -6.876 MY 0 MZ -16.215
731 FX -21.323 FY -1944.72 FZ -0.086 MX -0.111 MY 0 MZ 13.93
732 FX -0.041 FY -2637.85 FZ -0.129 MX -0.137 MY 0 MZ 0.154
733 FX -0.109 FY -2652.27 FZ -0.13 MX -0.138 MY 0 MZ 0.15
734 FX -0.053 FY -2652.37 FZ -0.13 MX -0.138 MY 0 MZ 0.078
735 FX -0.016 FY -2652.36 FZ -0.13 MX -0.138 MY 0 MZ 0.025
736 FX 0.016 FY -2652.36 FZ -0.13 MX -0.138 MY 0 MZ -0.025
737 FX 0.053 FY -2652.37 FZ -0.13 MX -0.138 MY 0 MZ -0.078
738 FX 0.109 FY -2652.27 FZ -0.13 MX -0.138 MY 0 MZ -0.15
739 FX 0.041 FY -2637.85 FZ -0.129 MX -0.137 MY 0 MZ -0.154
740 FX 21.323 FY -1944.72 FZ -0.086 MX -0.111 MY 0 MZ -13.93
# ... 40 like lines cut
LOAD COMB 3 COMBINATION LOAD CASE 3
1 1.0 2 1.0 
LOAD COMB 4 1.5DL+1.5LL
2 1.5 
PERFORM ANALYSIS
PRINT STORY DRIFT 0.025000
START CONCRETE DESIGN
CODE INDIAN
FC 25000 ALL
FYMAIN 550000 ALL
MAXMAIN 25 ALL
MINMAIN 10 ALL
DESIGN ELEMENT 105 TO 164 166 168 170 172 174 175 177 179 181 183 185 186 -
188 190 192 194 196 197 199 201 203 205 207 208 210 212 214 216 218 219 221 -
223 225 227 229 230 232 234 236 238 240 241 243 245 247 249 251 252 254 256 -
258 260 262 TO 266 268 TO 273 275 TO 280 282 TO 287 289 TO 294 296 TO 301 -
303 TO 308 310 TO 315 317 TO 322 324 TO 329 331 TO 334 336 TO 341 -
343 TO 348 350 TO 355 357 TO 362 364 TO 369 371 TO 376 378 TO 383 -
385 TO 390 392 TO 397 399 TO 402 404 TO 409 411 TO 416 418 TO 423 -
425 TO 430 432 TO 437 439 TO 444 446 TO 451 453 TO 458 460 TO 465 -
467 TO 471 473 475 477 479 481 482 484 486 488 490 492 493 495 497 499 501 -
503 504 506 508 510 512 514 515 517 519 521 523 525 526 528 530 532 534 536 -
537 539 541 543 545 547 548 550 552 554 556 558 559 561 563 565 567 -
569 TO 573 575 TO 580 582 TO 587 589 TO 594 596 TO 601 603 TO 608 -
610 TO 615 617 TO 622 624 TO 629 631 TO 636 638 TO 641 643 TO 648 -
650 TO 655 657 TO 662 664 TO 669 671 TO 676 678 TO 683 685 TO 690 -
692 TO 697 699 TO 704 706 TO 709 711 TO 716 718 TO 723 725 TO 730 -
732 TO 737 739 TO 744 746
DESIGN ELEMENT 747 TO 751 753 TO 758 760 TO 765 767 TO 772 774 TO 778 780 782 -
784 786 788 789 791 793 795 797 799 800 802 804 806 808 810 811 813 815 817 -
819 821 822 824 826 828 830 832 833 835 837 839 841 843 844 846 848 850 852 -
854 855 857 859 861 863 865 866 868 870 872 874 876 TO 880 882 TO 887 889 -
890 TO 894 896 TO 901 903 TO 908 910 TO 915 917 TO 922 924 TO 929 931 TO 936 -
938 TO 943 945 TO 948 950 TO 955 957 TO 962 964 TO 969 971 TO 976 -
978 TO 983 985 TO 990 992 TO 997 999 TO 1004 1006 TO 1011 1013 TO 1016 1018 -
1019 TO 1023 1025 TO 1030 1032 TO 1037 1039 TO 1044 1046 TO 1051 1053 TO 1058 -
1060 TO 1065 1067 TO 1072 1074 TO 1079 1081 TO 1085 1087 1089 1091 1093 1095 -
1096 1098 1100 1102 1104 1106 1107 1109 1111 1113 1115 1117 1118 1120 1122 -
1124 1126 1128 1129 1131 1133 1135 1137 1139 1140 1142 1144 1146 1148 1150 -
1151 1153 1155 1157 1159 1161 1162 1164 1166 1168 1170 1172 1173 1175 1177 -
1179 1181 1183 TO 1187 1189 TO 1194 1196 TO 1201 1203 TO 1208 1210 TO 1215 -
1217 TO 1222 1224 TO 1229 1231 TO 1236 1238 TO 1243 1245 TO 1250 -
1252 TO 1255 1257 TO 1262 1264 TO 1269 1271 TO 1276 1278 TO 1283 -
1285 TO 1290 1292 TO 1297 1299 TO 1304 1306 TO 1311 1313 TO 1318 -
1320 TO 1323 1325 TO 1330 1332
DESIGN ELEMENT 1333 TO 1337 1339 TO 1344 1346 TO 1351 1353 TO 1358 -
1360 TO 1365 1367 TO 1372 1374 TO 1379 1381 TO 1386 1388 TO 1392 1394 1396 -
1398 1400 1402 1403 1405 1407 1409 1411 1413 1414 1416 1418 1420 1422 1424 -
1425 1427 1429 1431 1433 1435 1436 1438 1440 1442 1444 1446 1447 1449 1451 -
1453 1455 1457 1458 1460 1462 1464 1466 1468 1469 1471 1473 1475 1477 1479 -
1480 1482 1484 1486 1488 1490 TO 1494 1496 TO 1501 1503 TO 1508 1510 TO 1515 -
1517 TO 1522 1524 TO 1529 1531 TO 1536 1538 TO 1543 1545 TO 1550 -
1552 TO 1557 1559 TO 1562 1564 TO 1569 1571 TO 1576 1578 TO 1583 -
1585 TO 1590 1592 TO 1597 1599 TO 1604 1606 TO 1611 1613 TO 1618 -
1620 TO 1625 1627 TO 1630 1632 TO 1637 1639 TO 1644 1646 TO 1651 -
1653 TO 1658 1660 TO 1665 1667 TO 1672 1674 TO 1679 1681 TO 1686 -
1688 TO 1693 1695 TO 1699 1701 1703 1705 1707 1709 1710 1712 1714 1716 1718 -
1720 1721 1723 1725 1727 1729 1731 1732 1734 1736 1738 1740 1742 1743 1745 -
1747 1749 1751 1753 1754 1756 1758 1760 1762 1764 1765 1767 1769 1771 1773 -
1775 1776 1778 1780 1782 1784 1786 1787 1789 1791 1793 1795 1797 TO 1916
CONCRETE TAKE
END CONCRETE DESIGN
FINISH
