STAAD SPACE
START JOB INFORMATION
ENGINEER DATE 08-Aug-24
END JOB INFORMATION
INPUT WIDTH 79
UNIT METER KN
JOINT COORDINATES
1 0 0 0; 2 7 0 0; 3 14 0 0; 4 21 0 0; 5 28 0 0; 6 35 0 0; 7 42 0 0; 8 49 0 0;
9 0 0 6; 10 7 0 6; 11 14 0 6; 12 21 0 6; 13 28 0 6; 14 35 0 6; 15 42 0 6;
16 49 0 6; 17 0 0 12; 18 7 0 12; 19 14 0 12; 20 21 0 12; 21 28 0 12;
22 35 0 12; 23 42 0 12; 24 49 0 12; 25 0 0 18; 26 7 0 18; 27 14 0 18;
28 21 0 18; 29 28 0 18; 30 35 0 18; 31 42 0 18; 32 49 0 18; 33 0 0 24;
34 7 0 24; 35 14 0 24; 36 21 0 24; 37 28 0 24; 38 35 0 24; 39 42 0 24;
40 49 0 24; 41 0 -2 0; 42 7 -2 0; 43 14 -2 0; 44 21 -2 0; 45 28 -2 0;
46 35 -2 0; 47 42 -2 0; 48 49 -2 0; 49 0 -2 6; 50 7 -2 6; 51 14 -2 6;
52 21 -2 6; 53 28 -2 6; 54 35 -2 6; 55 42 -2 6; 56 49 -2 6; 57 0 -2 12;
58 7 -2 12; 59 14 -2 12; 60 21 -2 12; 61 28 -2 12; 62 35 -2 12; 63 42 -2 12;
64 49 -2 12; 65 0 -2 18; 66 7 -2 18; 67 14 -2 18; 68 21 -2 18; 69 28 -2 18;
70 35 -2 18; 71 42 -2 18; 72 49 -2 18; 73 0 -2 24; 74 7 -2 24; 75 14 -2 24;
76 21 -2 24; 77 28 -2 24; 78 35 -2 24; 79 42 -2 24; 80 49 -2 24; 81 0 3 0;
82 7 3 0; 83 14 3 0; 84 21 3 0; 85 28 3 0; 86 35 3 0; 87 42 3 0; 88 49 3 0;
89 0 3 6; 90 7 3 6; 91 14 3 6; 92 21 3 6; 93 28 3 6; 94 35 3 6; 95 42 3 6;
96 49 3 6; 97 0 3 12; 98 7 3 12; 99 14 3 12; 100 21 3 12; 101 28 3 12;
102 35 3 12; 103 42 3 12; 104 49 3 12; 105 0 3 18; 106 7 3 18; 107 14 3 18;
108 21 3 18; 109 28 3 18; 110 35 3 18; 111 42 3 18; 112 49 3 18; 113 0 3 24;
114 7 3 24; 115 14 3 24; 116 21 3 24; 117 28 3 24; 118 35 3 24; 119 42 3 24;
120 49 3 24; 121 0 6 0; 122 7 6 0; 123 14 6 0; 124 21 6 0; 125 28 6 0;
# ... 3394 like lines cut
MEMBER INCIDENCES
1 1 2; 2 2 3; 3 3 4; 4 4 5; 5 5 6; 6 6 7; 7 7 8; 8 1 9; 9 2 10; 10 3 11;
11 4 12; 12 5 13; 13 6 14; 14 7 15; 15 8 16; 16 9 17; 17 10 18; 18 11 19;
19 12 20; 20 13 21; 21 14 22; 22 15 23; 23 16 24; 24 17 25; 25 18 26; 26 19 27;
27 20 28; 28 21 29; 29 22 30; 30 23 31; 31 24 32; 32 25 33; 33 26 34; 34 27 35;
35 28 36; 36 29 37; 37 30 38; 38 31 39; 39 32 40; 40 9 10; 41 10 11; 42 11 12;
43 12 13; 44 13 14; 45 14 15; 46 15 16; 47 17 18; 48 18 19; 49 19 20; 50 20 21;
51 21 22; 52 22 23; 53 23 24; 54 25 26; 55 26 27; 56 27 28; 57 28 29; 58 29 30;
59 30 31; 60 31 32; 61 33 34; 62 34 35; 63 35 36; 64 36 37; 65 37 38; 66 38 39;
67 39 40; 68 1 41; 69 2 42; 70 3 43; 71 4 44; 72 5 45; 73 6 46; 74 7 47;
75 8 48; 76 9 49; 77 10 50; 78 11 51; 79 12 52; 80 13 53; 81 14 54; 82 15 55;
83 16 56; 84 17 57; 85 18 58; 86 19 59; 87 20 60; 88 21 61; 89 22 62; 90 23 63;
91 24 64; 92 25 65; 93 26 66; 94 27 67; 95 28 68; 96 29 69; 97 30 70; 98 31 71;
99 32 72; 100 33 73; 101 34 74; 102 35 75; 103 36 76; 104 37 77; 105 38 78;
106 39 79; 107 40 80; 108 1 81; 109 2 82; 110 3 83; 111 4 84; 112 5 85;
113 6 86; 114 7 87; 115 8 88; 116 9 89; 117 10 90; 118 11 91; 119 12 92;
120 13 93; 121 14 94; 122 15 95; 123 16 96; 124 17 97; 125 18 98; 126 19 99;
127 20 100; 128 21 101; 129 22 102; 130 23 103; 131 24 104; 132 25 105;
133 26 106; 134 27 107; 135 28 108; 136 29 109; 137 30 110; 138 31 111;
139 32 112; 140 33 113; 141 34 114; 142 35 115; 143 36 116; 144 37 117;
145 38 118; 146 39 119; 147 40 120; 148 81 121; 149 82 122; 150 83 123;
# ... 165 like lines cut
ELEMENT INCIDENCES SHELL
2100 193 767 768 769; 2115 767 770 771 768; 2124 770 589 772 771;
2133 769 768 773 774; 2134 768 771 775 773; 2143 771 772 776 775;
2158 774 773 777 521; 2173 773 775 778 777; 2174 775 776 590 778;
2196 602 779 780 781; 2210 779 782 783 780; 2219 782 194 784 783;
2233 194 785 786 784; 2247 785 787 788 786; 2256 787 615 789 788;
2265 781 780 790 791; 2266 780 783 792 790; 2275 783 784 793 792;
2276 784 786 794 793; 2277 786 788 795 794; 2286 788 789 796 795;
2300 791 790 797 603; 2314 790 792 798 797; 2315 792 793 522 798;
2329 793 794 799 522; 2343 794 795 800 799; 2344 795 796 616 800;
2364 628 801 802 803; 2376 801 804 805 802; 2385 804 195 806 805;
2397 195 807 808 806; 2409 807 809 810 808; 2418 809 641 811 810;
2427 803 802 812 813; 2428 802 805 814 812; 2437 805 806 815 814;
2438 806 808 816 815; 2439 808 810 817 816; 2448 810 811 818 817;
2460 813 812 819 629; 2472 812 814 820 819; 2473 814 815 523 820;
2485 815 816 821 523; 2497 816 817 822 821; 2498 817 818 642 822;
2516 654 823 824 825; 2526 823 826 827 824; 2535 826 196 828 827;
2545 196 829 830 828; 2555 829 831 832 830; 2564 831 667 833 832;
2573 825 824 834 835; 2574 824 827 836 834; 2583 827 828 837 836;
2584 828 830 838 837; 2585 830 832 839 838; 2594 832 833 840 839;
2604 835 834 841 655; 2614 834 836 842 841; 2615 836 837 524 842;
# ... 6512 like lines cut
START GROUP DEFINITION
ELEMENT
_DROP 2100 2115 2124 2133 2134 2143 2158 2173 2174 2196 2210 2219 2233 2247 -
2256 2265 2266 2275 TO 2277 2286 2300 2314 2315 2329 2343 2344 2364 2376 -
2385 2397 2409 2418 2427 2428 2437 TO 2439 2448 2460 2472 2473 2485 2497 -
2498 2516 2526 2535 2545 2555 2564 2573 2574 2583 TO 2585 2594 2604 2614 -
2615 2625 2635 2636 2652 2660 2669 2677 2685 2694 2703 2704 2713 TO 2715 -
2724 2732 2740 2741 2749 2757 2758 2772 2778 2787 2793 2799 2808 2817 2818 -
2827 TO 2829 2838 2844 2850 2851 2857 2863 2864 2876 2880 2889 2893 2897 -
2906 2915 2916 2925 TO 2927 2936 2940 2944 2945 2949 2953 2954 2964 2966 -
2975 2984 2985 2994 2996 2998 2999 3021 3036 3044 3052 3053 3061 3076 3091 -
3092 3100 3101 3109 3117 3118 3126 3141 3156 3157 3177 3192 3198 3204 3205 -
3211 3226 3241 3242 3248 3249 3255 3261 3262 3268 3283 3298 3299 3317 3332 -
3336 3340 3341 3345 3360 3375 3376 3380 3381 3385 3389 3390 3394 3409 3424 -
3425 3441 3456 3458 3460 3461 3463 3478 3493 3494 3509 3523 3525 3539 3553 -
3555 3557 3558 3560 TO 3562 3564 3578 3592 3593 3607 3621 3622 3635 3647 -
3649 3661 3673 3675 3677 3678 3680 TO 3682 3684 3696 3708 3709 3721 3733 -
3734 3745 3755 3757 3767 3777 3779 3781 3782 3784 TO 3786 3788 3798 3808 -
3809 3819 3829 3830 3839 3847 3849 3857 3865 3867 3869 3870 3872 TO 3874 -
3876 3884 3892 3893 3901 3909 3910 3917 3923 3925 3931 3937 3939 3941 3942 -
3944 TO 3946 3948 3954 3960 3961 3967 3973 3974 3979
_DROP 3983 3985 3989 3993 3995 3997 3998 4000 TO 4002 4004 4008 4012 4013 -
4017 4021 4022 4025 4027 4029 4031 4032 4034 4036 4038 4039 4048 4050 4058 -
4066 4067 4075 4077 4079 4080 4088 4089 4097 4105 4106 4114 4116 4118 4119 -
4126 4128 4134 4140 4141 4147 4149 4151 4152 4158 4159 4165 4171 4172 4178 -
4180 4182 4183 4188 4190 4194 4198 4199 4203 4205 4207 4208 4212 4213 4217 -
4221 4222 4226 4228 4230 4231 4252 4266 4274 4288 4302 4310 4318 4319 4327 -
4328 TO 4329 4337 4351 4365 4366 4380 4394 4395 4403 4404 4412 TO 4414 4422 -
4430 4431 4439 TO 4441 4449 4463 4477 4478 4492 4506 4507 4526 4538 4546 -
4558 4570 4578 4586 4587 4595 TO 4597 4605 4617 4629 4630 4642 4654 4655 -
4663 4664 4672 TO 4674 4682 4690 4691 4699 TO 4701 4709 4721 4733 4734 4746 -
4758 4759 4774 4782 4790 4798 4806 4814 4822 4823 4831 TO 4833 4841 4849 -
4857 4858 4866 4874 4875 4883 4884 4892 TO 4894 4902 4910 4911 4919 TO 4921 -
4929 4937 4945 4946 4954 4962 4963 4980 4990 4998 5008 5018 5026 5034 5035 -
5043 TO 5045 5053 5063 5073 5074 5084 5094 5095 5103 5104 5112 TO 5114 5122 -
5130 5131 5139 TO 5141 5149 5159 5169 5170 5180 5190 5191 5204 5210 5218 -
5224 5230 5238 5246 5247 5255 TO 5257 5265 5271 5277 5278 5284 5290 5291 -
5299 5300 5308 TO 5310 5318 5326 5327 5335 TO 5337 5345 5351 5357 5358 5364 -
5370 5371 5382 5386 5394 5398 5402 5410 5418 5419 5427 TO 5429 5437 5441 -
5445 5446 5450 5454 5455 5463 5464
_DROP 5472 TO 5474 5482 5490 5491 5499 TO 5501 5509 5513 5517 5518 5522 5526 -
5527 5546 5560 5566 5580 5594 5600 5606 5607 5613 TO 5615 5621 5635 5649 -
5650 5664 5678 5679 5685 5686 5692 TO 5694 5700 5706 5707 5713 TO 5715 5721 -
5735 5749 5750 5764 5778 5779 5796 5808 5814 5826 5838 5844 5850 5851 5857 -
5858 TO 5859 5865 5877 5889 5890 5902 5914 5915 5921 5922 5928 TO 5930 5936 -
5942 5943 5949 TO 5951 5957 5969 5981 5982 5994 6006 6007 6022 6032 6038 -
6048 6058 6064 6070 6071 6077 TO 6079 6085 6095 6105 6106 6116 6126 6127 -
6133 6134 6140 TO 6142 6148 6154 6155 6161 TO 6163 6169 6179 6189 6190 6200 -
6210 6211 6224 6232 6238 6246 6254 6260 6266 6267 6273 TO 6275 6281 6289 -
6297 6298 6306 6314 6315 6321 6322 6328 TO 6330 6336 6342 6343 6349 TO 6351 -
6357 6365 6373 6374 6382 6390 6391 6402 6408 6414 6420 6426 6432 6438 6439 -
6445 TO 6447 6453 6459 6465 6466 6472 6478 6479 6485 6486 6492 TO 6494 6500 -
6506 6507 6513 TO 6515 6521 6527 6533 6534 6540 6546 6547 6556 6560 6566 -
6570 6574 6580 6586 6587 6593 TO 6595 6601 6605 6609 6610 6614 6618 6619 -
6625 6626 6632 TO 6634 6640 6646 6647 6653 TO 6655 6661 6665 6669 6670 6674 -
6678 6679 6696 6710 6714 6728 6742 6746 6750 6751 6755 TO 6757 6761 6775 -
6789 6790 6804 6818 6819 6823 6824 6828 TO 6830 6834 6838 6839 6843 TO 6845 -
6849 6863 6877 6878 6892 6906 6907 6922 6934 6938 6950 6962 6966 6970 6971 -
6975 TO 6977 6981
_DROP 6993 7005 7006 7018 7030 7031 7035 7036 7040 TO 7042 7046 7050 7051 -
7055 TO 7057 7061 7073 7085 7086 7098 7110 7111 7124 7134 7138 7148 7158 -
7162 7166 7167 7171 TO 7173 7177 7187 7197 7198 7208 7218 7219 7223 7224 -
7228 TO 7230 7234 7238 7239 7243 TO 7245 7249 7259 7269 7270 7280 7290 7291 -
7302 7310 7314 7322 7330 7334 7338 7339 7343 TO 7345 7349 7357 7365 7366 -
7374 7382 7383 7387 7388 7392 TO 7394 7398 7402 7403 7407 TO 7409 7413 7421 -
7429 7430 7438 7446 7447 7456 7462 7466 7472 7478 7482 7486 7487 -
7491 TO 7493 7497 7503 7509 7510 7516 7522 7523 7527 7528 7532 TO 7534 7538 -
7542 7543 7547 TO 7549 7553 7559 7565 7566 7572 7578 7579 7586 7590 7594 -
7598 7602 7606 7610 7611 7615 TO 7617 7621 7625 7629 7630 7634 7638 7639 -
7643 7644 7648 TO 7650 7654 7658 7659 7663 TO 7665 7669 7673 7677 7678 7682 -
7686 7687 19487 TO 20494 24998 TO 26005
END GROUP DEFINITION
ELEMENT PROPERTY
7696 7697 7706 7721 7736 7751 7766 7781 7796 7811 7820 TO 7822 7831 TO 7833 -
7842 7855 7868 7881 7894 7907 7920 7933 7942 TO 7944 7953 TO 7955 7964 7975 -
7986 7997 8008 8019 8030 8041 8050 TO 8052 8061 TO 8063 8072 8081 8090 8099 -
8108 8117 8126 8135 8144 TO 8146 8155 TO 8157 8166 8173 8180 8187 8194 8201 -
8208 8215 8224 TO 8226 8235 TO 8237 8246 8251 8256 8261 8266 8271 8276 8281 -
8290 TO 8292 8301 TO 8303 8312 8315 8318 8321 8324 8327 8330 8333 -
8342 TO 8344 8353 8362 8363 8372 TO 8379 8388 TO 8390 8399 TO 8401 -
8410 TO 8417 8426 TO 8428 8437 TO 8439 8448 TO 8455 8464 TO 8466 -
8475 TO 8477 8486 TO 8493 8502 TO 8504 8513 TO 8515 8524 TO 8531 -
8540 TO 8542 8551 TO 8553 8562 TO 8569 8578 TO 8580 8589 TO 8591 -
8600 TO 8607 8616 TO 8618 8627 8636 8637 8646 TO 8653 8662 TO 8664 -
8673 TO 8675 8684 TO 8691 8700 TO 8702 8711 TO 8713 8722 TO 8729 -
8738 TO 8740 8749 TO 8751 8760 TO 8767 8776 TO 8778 8787 TO 8789 -
8798 TO 8805 8814 TO 8816 8825 TO 8827 8836 TO 8843 8852 TO 8854 -
8863 TO 8865 8874 TO 8881 8890 TO 8892 8901 8910 8911 8920 TO 8927 -
8936 TO 8938 8947 TO 8949 8958 TO 8965 8974 TO 8976 8985 TO 8987 -
8996 TO 9003 9012 TO 9014 9023 TO 9025 9034 TO 9041 9050 TO 9052 -
9061 TO 9063 9072 TO 9079 9088 TO 9090 9099 TO 9101 9110 TO 9117 -
9126 TO 9128 9137 TO 9139 THICKNESS 0.2
20495 TO 20874 26006 TO 26385 THICKNESS 0.2
9148 TO 9155 9164 TO 9166 9175 9184 9185 9194 TO 9201 9210 TO 9212 -
9221 TO 9223 9232 TO 9239 9248 TO 9250 9259 TO 9261 9270 TO 9277 -
9286 TO 9288 9297 TO 9299 9308 TO 9315 9324 TO 9326 9335 TO 9337 -
9346 TO 9353 9362 TO 9364 9373 TO 9375 9384 TO 9391 9400 TO 9402 -
9411 TO 9413 9422 TO 9429 9438 TO 9440 9449 TO 9452 9467 9482 9497 9512 9527 -
9542 9557 TO 9564 9577 9590 9603 9616 9629 9642 9655 TO 9662 9673 9684 9695 -
9706 9717 9728 9739 TO 9746 9755 9764 9773 9782 9791 9800 9809 TO 9816 9823 -
9830 9837 9844 9851 9858 9865 TO 9872 9877 9882 9887 9892 9897 9902 9907 -
9908 TO 9914 9917 9920 9923 9926 9929 9932 9935 TO 9939 9946 9947 9954 9969 -
9984 9999 10014 10029 10044 10059 10066 TO 10068 10075 TO 10077 10084 10097 -
10110 10123 10136 10149 10162 10175 10182 TO 10184 10191 TO 10193 10200 -
10211 10222 10233 10244 10255 10266 10277 10284 TO 10286 10293 TO 10295 -
10302 10311 10320 10329 10338 10347 10356 10365 10372 TO 10374 -
10381 TO 10383 10390 10397 10404 10411 10418 10425 10432 10439 -
10446 TO 10448 10455 TO 10457 10464 10469 10474 10479 10484 10489 10494 -
10499 10506 TO 10508 10515 TO 10517 10524 10527 10530 10533 10536 10539 -
10542 10545 10552 TO 10554 10561 10568 10569 10576 TO 10583 10590 TO 10592 -
10599 TO 10601 10608 TO 10615 10622 TO 10624 10631 TO 10633 10640 TO 10647 -
10654 TO 10656 10663 TO 10665 10672 TO 10679 10686 TO 10688 10695 TO 10697 -
10704 TO 10711 10718 TO 10720 10727 TO 10729 THICKNESS 0.2
20875 TO 21252 26386 TO 26763 THICKNESS 0.2
10736 TO 10743 10750 TO 10752 10759 TO 10761 10768 TO 10775 10782 TO 10784 -
10791 10798 10799 10806 TO 10813 10820 TO 10822 10829 TO 10831 -
10838 TO 10845 10852 TO 10854 10861 TO 10863 10870 TO 10877 10884 TO 10886 -
10893 TO 10895 10902 TO 10909 10916 TO 10918 10925 TO 10927 10934 TO 10941 -
10948 TO 10950 10957 TO 10959 10966 TO 10973 10980 TO 10982 10989 TO 10991 -
10998 TO 11005 11012 TO 11014 11021 11028 11029 11036 TO 11043 -
11050 TO 11052 11059 TO 11061 11068 TO 11075 11082 TO 11084 11091 TO 11093 -
11100 TO 11107 11114 TO 11116 11123 TO 11125 11132 TO 11139 11146 TO 11148 -
11155 TO 11157 11164 TO 11171 11178 TO 11180 11187 TO 11189 11196 TO 11203 -
11210 TO 11212 11219 TO 11221 11228 TO 11235 11242 TO 11244 11251 11258 -
11259 11266 TO 11273 11280 TO 11282 11289 TO 11291 11298 TO 11305 -
11312 TO 11314 11321 TO 11323 11330 TO 11337 11344 TO 11346 11353 TO 11355 -
11362 TO 11369 11376 TO 11378 11385 TO 11387 11394 TO 11401 11408 TO 11410 -
11417 TO 11419 11426 TO 11433 11440 TO 11442 11449 TO 11451 11458 TO 11465 -
11472 TO 11474 11481 TO 11484 11499 11514 11529 11544 11559 11574 -
11589 TO 11596 11609 11622 11635 11648 11661 11674 11687 TO 11694 11705 -
11716 11727 11738 11749 11760 11771 TO 11778 11787 11796 11805 11814 11823 -
11832 11841 TO 11848 11855 11862 11869 11876 11883 11890 11897 TO 11904 -
11909 11914 11919 11924 11929 11934 11939 TO 11946 11949 11952 11955 11958 -
11961 11964 11967 TO 11971 11976 11977 11982 11997 12012 12027 12042 12057 -
12072 12087 THICKNESS 0.2
21253 TO 21680 26764 TO 27191 THICKNESS 0.2
12092 TO 12094 12099 TO 12101 12106 12119 12132 12145 12158 12171 12184 12197 -
12202 TO 12204 12209 TO 12211 12216 12227 12238 12249 12260 12271 12282 -
12293 12298 TO 12300 12305 TO 12307 12312 12321 12330 12339 12348 12357 -
12366 12375 12380 TO 12382 12387 TO 12389 12394 12401 12408 12415 12422 -
12429 12436 12443 12448 TO 12450 12455 TO 12457 12462 12467 12472 12477 -
12482 12487 12492 12497 12502 TO 12504 12509 TO 12511 12516 12519 12522 -
12525 12528 12531 12534 12537 12542 TO 12544 12549 12554 12555 -
12560 TO 12567 12572 TO 12574 12579 TO 12581 12586 TO 12593 12598 TO 12600 -
12605 TO 12607 12612 TO 12619 12624 TO 12626 12631 TO 12633 12638 TO 12645 -
12650 TO 12652 12657 TO 12659 12664 TO 12671 12676 TO 12678 12683 TO 12685 -
12690 TO 12697 12702 TO 12704 12709 TO 12711 12716 TO 12723 12728 TO 12730 -
12735 12740 12741 12746 TO 12753 12758 TO 12760 12765 TO 12767 -
12772 TO 12779 12784 TO 12786 12791 TO 12793 12798 TO 12805 12810 TO 12812 -
12817 TO 12819 12824 TO 12831 12836 TO 12838 12843 TO 12845 12850 TO 12857 -
12862 TO 12864 12869 TO 12871 12876 TO 12883 12888 TO 12890 12895 TO 12897 -
12902 TO 12909 12914 TO 12916 12921 12926 12927 12932 TO 12939 -
12944 TO 12946 12951 TO 12953 12958 TO 12965 12970 TO 12972 12977 TO 12979 -
12984 TO 12991 12996 TO 12998 13003 TO 13005 13010 TO 13017 13022 TO 13024 -
13029 TO 13031 13036 TO 13043 13048 TO 13050 13055 TO 13057 13062 TO 13069 -
13074 TO 13076 13081 TO 13083 13088 TO 13095 13100 TO 13102 13107 13112 -
13113 13118 THICKNESS 0.2
21681 TO 22065 27192 TO 27576 THICKNESS 0.2
13119 TO 13125 13130 TO 13132 13137 TO 13139 13144 TO 13151 13156 TO 13158 -
13163 TO 13165 13170 TO 13177 13182 TO 13184 13189 TO 13191 13196 TO 13203 -
13208 TO 13210 13215 TO 13217 13222 TO 13229 13234 TO 13236 13241 TO 13243 -
13248 TO 13255 13260 TO 13262 13267 TO 13269 13274 TO 13281 13286 TO 13288 -
13293 TO 13296 13311 13326 13341 13356 13371 13386 13401 TO 13408 13421 -
13434 13447 13460 13473 13486 13499 TO 13506 13517 13528 13539 13550 13561 -
13572 13583 TO 13590 13599 13608 13617 13626 13635 13644 13653 TO 13660 -
13667 13674 13681 13688 13695 13702 13709 TO 13716 13721 13726 13731 13736 -
13741 13746 13751 TO 13758 13761 13764 13767 13770 13773 13776 -
13779 TO 13783 13786 13787 13790 13805 13820 13835 13850 13865 13880 13895 -
13898 TO 13900 13903 TO 13905 13908 13921 13934 13947 13960 13973 13986 -
13999 14002 TO 14004 14007 TO 14009 14012 14023 14034 14045 14056 14067 -
14078 14089 14092 TO 14094 14097 TO 14099 14102 14111 14120 14129 14138 -
14147 14156 14165 14168 TO 14170 14173 TO 14175 14178 14185 14192 14199 -
14206 14213 14220 14227 14230 TO 14232 14235 TO 14237 14240 14245 14250 -
14255 14260 14265 14270 14275 14278 TO 14280 14283 TO 14285 14288 14291 -
14294 14297 14300 14303 14306 14309 14312 TO 14314 14317 14320 14321 14324 -
14325 TO 14331 14334 TO 14336 14339 TO 14341 14344 TO 14351 14354 TO 14356 -
14359 TO 14361 14364 TO 14371 14374 TO 14376 14379 TO 14381 14384 TO 14391 -
14394 TO 14396 14399 TO 14401 14404 TO 14411 14414 TO 14416 14419 TO 14421 -
14424 TO 14431 14434 TO 14436 14439 TO 14441 THICKNESS 0.2
22066 TO 22442 27577 TO 27953 THICKNESS 0.2
14444 TO 14451 14454 TO 14456 14459 14462 14463 14466 TO 14473 14476 TO 14478 -
14481 TO 14483 14486 TO 14493 14496 TO 14498 14501 TO 14503 14506 TO 14513 -
14516 TO 14518 14521 TO 14523 14526 TO 14533 14536 TO 14538 14541 TO 14543 -
14546 TO 14553 14556 TO 14558 14561 TO 14563 14566 TO 14573 14576 TO 14578 -
14581 TO 14583 14586 TO 14593 14596 TO 14598 14601 14604 14605 -
14608 TO 14615 14618 TO 14620 14623 TO 14625 14628 TO 14635 14638 TO 14640 -
14643 TO 14645 14648 TO 14655 14658 TO 14660 14663 TO 14665 14668 TO 14675 -
14678 TO 14680 14683 TO 14685 14688 TO 14695 14698 TO 14700 14703 TO 14705 -
14708 TO 14715 14718 TO 14720 14723 TO 14725 14728 TO 14735 14738 TO 14740 -
14743 14746 14747 14750 TO 14757 14760 TO 14762 14765 TO 14767 -
14770 TO 14777 14780 TO 14782 14785 TO 14787 14790 TO 14797 14800 TO 14802 -
14805 TO 14807 14810 TO 14817 14820 TO 14822 14825 TO 14827 14830 TO 14837 -
14840 TO 14842 14845 TO 14847 14850 TO 14857 14860 TO 14862 14865 TO 14867 -
14870 TO 14877 14880 TO 14882 14885 TO 14888 14903 14918 14933 14948 14963 -
14978 14993 TO 15000 15013 15026 15039 15052 15065 15078 15091 TO 15098 -
15109 15120 15131 15142 15153 15164 15175 TO 15182 15191 15200 15209 15218 -
15227 15236 15245 TO 15252 15259 15266 15273 15280 15287 15294 -
15301 TO 15308 15313 15318 15323 15328 15333 15338 15343 TO 15350 15353 -
15356 15359 15362 15365 15368 15371 TO 15375 15390 15405 15420 15435 15450 -
15465 15480 TO 15497 15510 15523 15536 15549 15562 15575 15588 TO 15605 -
15616 THICKNESS 0.2
22443 TO 22895 27954 TO 28406 THICKNESS 0.2
15627 15638 15649 15660 15671 15682 TO 15699 15708 15717 15726 15735 15744 -
15753 15762 TO 15779 15786 15793 15800 15807 15814 15821 15828 TO 15845 -
15850 15855 15860 15865 15870 15875 15880 TO 15897 15900 15903 15906 15909 -
15912 15915 15918 TO 15951 15966 15981 15996 16011 16026 16041 16056 16057 -
16070 16083 16096 16109 16122 16135 16148 TO 16181 16192 16203 16214 16225 -
16236 16247 16258 TO 16275 16284 16293 16302 16311 16320 16329 -
16338 TO 16341 16348 TO 16350 16357 TO 16359 16366 TO 16368 16375 TO 16377 -
16384 TO 16386 16393 TO 16395 16402 TO 16421 16426 16431 16436 16441 16446 -
16451 16456 TO 16473 16476 16479 16482 16485 16488 16491 16494 TO 16511 -
16526 16541 16556 16571 16586 16601 16616 TO 16657 16670 16683 16696 16709 -
16722 16735 16748 TO 16789 16800 16811 16822 16833 16844 16855 -
16866 TO 16907 16916 16925 16934 16943 16952 16961 16970 TO 17011 17018 -
17025 17032 17039 17046 17053 17060 TO 17101 17106 17111 17116 17121 17126 -
17131 17136 TO 17177 17180 17183 17186 17189 17192 17195 17198 TO 17239 -
17254 17269 17284 17299 17314 17329 17344 TO 17385 17398 17411 17424 17437 -
17450 17463 17476 TO 17517 17528 17539 17550 17561 17572 17583 -
17594 TO 17635 17644 17653 17662 17671 17680 17689 17698 TO 17739 17746 -
17753 17760 17767 17774 17781 17788 TO 17829 17834 17839 17844 17849 17854 -
17859 17864 TO 17905 17908 17911 17914 17917 17920 17923 17926 TO 17967 -
17982 17997 18012 18027 18042 18057 18072 TO 18113 18126 18139 18152 18165 -
18178 18191 18204 TO 18245 18256 18267 18278 18289 18300 18311 -
18322 TO 18363 18372 18381 18390 18399 18408 18417 18426 TO -
18465  THICKNESS 0.2
18466 THICKNESS 0.2
18467 22896 TO 24062 28407 TO 29573 THICKNESS 0.2
18474 18481 18488 18495 18502 18509 18516 TO 18557 18562 18567 18572 18577 -
18582 18587 18592 TO 18633 18636 18639 18642 18645 18648 18651 -
18654 TO 18679 24063 TO 24190 29574 TO 29701 THICKNESS 0.2
2100 2115 2124 2133 2134 2143 2158 2173 2174 2196 2210 2219 2233 2247 2256 -
2265 2266 2275 TO 2277 2286 2300 2314 2315 2329 2343 2344 2364 2376 2385 -
2397 2409 2418 2427 2428 2437 TO 2439 2448 2460 2472 2473 2485 2497 2498 -
2516 2526 2535 2545 2555 2564 2573 2574 2583 TO 2585 2594 2604 2614 2615 -
2625 2635 2636 2652 2660 2669 2677 2685 2694 2703 2704 2713 TO 2715 2724 -
2732 2740 2741 2749 2757 2758 2772 2778 2787 2793 2799 2808 2817 2818 2827 -
2828 TO 2829 2838 2844 2850 2851 2857 2863 2864 2876 2880 2889 2893 2897 2906 -
2915 2916 2925 TO 2927 2936 2940 2944 2945 2949 2953 2954 2964 2966 2975 -
2984 2985 2994 2996 2998 2999 3021 3036 3044 3052 3053 3061 3076 3091 3092 -
3100 3101 3109 3117 3118 3126 3141 3156 3157 3177 3192 3198 3204 3205 3211 -
3226 3241 3242 3248 3249 3255 3261 3262 3268 3283 3298 3299 3317 3332 3336 -
3340 3341 3345 3360 3375 3376 3380 3381 3385 3389 3390 3394 3409 3424 3425 -
3441 3456 3458 3460 3461 3463 3478 3493 3494 3509 3523 3525 3539 3553 3555 -
3557 3558 3560 TO 3562 3564 3578 3592 3593 3607 3621 3622 3635 3647 3649 -
3661 3673 3675 3677 3678 3680 TO 3682 3684 3696 3708 3709 3721 3733 3734 -
3745 3755 3757 3767 3777 3779 3781 3782 3784 TO 3786 3788 3798 3808 3809 -
3819 3829 3830 3839 3847 3849 3857 3865 3867 3869 3870 3872 TO 3874 3876 -
3884 3892 3893 3901 3909 3910 3917 3923 3925 3931 3937 3939 3941 3942 3944 -
3945 TO 3946 3948 3954 3960 3961 3967 3973 3974 3979 THICKNESS 0.3
19487 TO 19766 24998 TO 25277 THICKNESS 0.3
3983 3985 3989 3993 3995 3997 3998 4000 TO 4002 4004 4008 4012 4013 4017 4021 -
4022 4025 4027 4029 4031 4032 4034 4036 4038 4039 4048 4050 4058 4066 4067 -
4075 4077 4079 4080 4088 4089 4097 4105 4106 4114 4116 4118 4119 4126 4128 -
4134 4140 4141 4147 4149 4151 4152 4158 4159 4165 4171 4172 4178 4180 4182 -
4183 4188 4190 4194 4198 4199 4203 4205 4207 4208 4212 4213 4217 4221 4222 -
4226 4228 4230 4231 4252 4266 4274 4288 4302 4310 4318 4319 4327 TO 4329 -
4337 4351 4365 4366 4380 4394 4395 4403 4404 4412 TO 4414 4422 4430 4431 -
4439 TO 4441 4449 4463 4477 4478 4492 4506 4507 4526 4538 4546 4558 4570 -
4578 4586 4587 4595 TO 4597 4605 4617 4629 4630 4642 4654 4655 4663 4664 -
4672 TO 4674 4682 4690 4691 4699 TO 4701 4709 4721 4733 4734 4746 4758 4759 -
4774 4782 4790 4798 4806 4814 4822 4823 4831 TO 4833 4841 4849 4857 4858 -
4866 4874 4875 4883 4884 4892 TO 4894 4902 4910 4911 4919 TO 4921 4929 4937 -
4945 4946 4954 4962 4963 4980 4990 4998 5008 5018 5026 5034 5035 -
5043 TO 5045 5053 5063 5073 5074 5084 5094 5095 5103 5104 5112 TO 5114 5122 -
5130 5131 5139 TO 5141 5149 5159 5169 5170 5180 5190 5191 5204 5210 5218 -
5224 5230 5238 5246 5247 5255 TO 5257 5265 5271 5277 5278 5284 5290 5291 -
5299 5300 5308 TO 5310 5318 5326 5327 5335 TO 5337 5345 5351 5357 5358 5364 -
5370 5371 5382 5386 5394 5398 5402 5410 5418 5419 5427 TO 5429 5437 5441 -
5445 5446 5450 5454 5455 5463 5464 THICKNESS 0.3
19767 TO 20046 25278 TO 25557 THICKNESS 0.3
5472 TO 5474 5482 5490 5491 5499 TO 5501 5509 5513 5517 5518 5522 5526 5527 -
5546 5560 5566 5580 5594 5600 5606 5607 5613 TO 5615 5621 5635 5649 5650 -
5664 5678 5679 5685 5686 5692 TO 5694 5700 5706 5707 5713 TO 5715 5721 5735 -
5749 5750 5764 5778 5779 5796 5808 5814 5826 5838 5844 5850 5851 -
5857 TO 5859 5865 5877 5889 5890 5902 5914 5915 5921 5922 5928 TO 5930 5936 -
5942 5943 5949 TO 5951 5957 5969 5981 5982 5994 6006 6007 6022 6032 6038 -
6048 6058 6064 6070 6071 6077 TO 6079 6085 6095 6105 6106 6116 6126 6127 -
6133 6134 6140 TO 6142 6148 6154 6155 6161 TO 6163 6169 6179 6189 6190 6200 -
6210 6211 6224 6232 6238 6246 6254 6260 6266 6267 6273 TO 6275 6281 6289 -
6297 6298 6306 6314 6315 6321 6322 6328 TO 6330 6336 6342 6343 6349 TO 6351 -
6357 6365 6373 6374 6382 6390 6391 6402 6408 6414 6420 6426 6432 6438 6439 -
6445 TO 6447 6453 6459 6465 6466 6472 6478 6479 6485 6486 6492 TO 6494 6500 -
6506 6507 6513 TO 6515 6521 6527 6533 6534 6540 6546 6547 6556 6560 6566 -
6570 6574 6580 6586 6587 6593 TO 6595 6601 6605 6609 6610 6614 6618 6619 -
6625 6626 6632 TO 6634 6640 6646 6647 6653 TO 6655 6661 6665 6669 6670 6674 -
6678 6679 6696 6710 6714 6728 6742 6746 6750 6751 6755 TO 6757 6761 6775 -
6789 6790 6804 6818 6819 6823 6824 6828 TO 6830 6834 6838 6839 6843 TO 6845 -
6849 6863 6877 6878 6892 6906 6907 6922 6934 6938 6950 6962 6966 6970 6971 -
6975 TO 6977 6981 THICKNESS 0.3
20047 TO 20326 25558 TO 25837 THICKNESS 0.3
6993 7005 7006 7018 7030 7031 7035 7036 7040 TO 7042 7046 7050 7051 -
7055 TO 7057 7061 7073 7085 7086 7098 7110 7111 7124 7134 7138 7148 7158 -
7162 7166 7167 7171 TO 7173 7177 7187 7197 7198 7208 7218 7219 7223 7224 -
7228 TO 7230 7234 7238 7239 7243 TO 7245 7249 7259 7269 7270 7280 7290 7291 -
7302 7310 7314 7322 7330 7334 7338 7339 7343 TO 7345 7349 7357 7365 7366 -
7374 7382 7383 7387 7388 7392 TO 7394 7398 7402 7403 7407 TO 7409 7413 7421 -
7429 7430 7438 7446 7447 7456 7462 7466 7472 7478 7482 7486 7487 -
7491 TO 7493 7497 7503 7509 7510 7516 7522 7523 7527 7528 7532 TO 7534 7538 -
7542 7543 7547 TO 7549 7553 7559 7565 7566 7572 7578 7579 7586 7590 7594 -
7598 7602 7606 7610 7611 7615 TO 7617 7621 7625 7629 7630 7634 7638 7639 -
7643 7644 7648 TO 7650 7654 7658 7659 7663 TO 7665 7669 7673 7677 7678 7682 -
7686 7687 20327 TO 20494 25838 TO 26005 THICKNESS 0.3
DEFINE MATERIAL START
ISOTROPIC CONCRETE
E 2.17185e+007
POISSON 0.17
DENSITY 23.5616
ALPHA 1e-005
DAMP 0.05
TYPE CONCRETE
STRENGTH FCU 27579
END DEFINE MATERIAL
MEMBER PROPERTY AMERICAN
68 TO 547 PRIS YD 0.5 ZD 0.5
1 TO 67 548 TO 681 883 TO 1284 PRIS YD 0.23 ZD 0.45
CONSTANTS
MATERIAL CONCRETE ALL
SUPPORTS
41 TO 80 FIXED
DEFINE 1893 LOAD
ZONE 0.1 RF 3 I 1 SS 2 ST 1 DM 0.05
SELFWEIGHT 1 
MEMBER WEIGHT
1 TO 8 15 16 23 24 31 32 39 61 TO 67 548 TO 555 562 563 570 571 578 579 586 -
608 TO 622 629 630 637 638 645 646 653 675 TO 681 883 TO 890 897 898 905 -
906 913 914 921 943 TO 957 964 965 972 973 980 981 988 1010 TO 1024 1031 -
1032 1039 1040 1047 1048 1055 1077 TO 1091 1098 1099 1106 1107 1114 1115 -
1122 1144 TO 1158 1165 1166 1173 1174 1181 1182 1189 1211 TO 1216 -
1217 UNI -12.88
9 TO 14 17 TO 22 25 TO 30 33 TO 38 40 TO 60 556 TO 561 564 TO 569 572 TO 577 -
580 TO 585 587 TO 607 623 TO 628 631 TO 636 639 TO 644 647 TO 652 -
654 TO 674 891 TO 896 899 TO 904 907 TO 912 915 TO 920 922 TO 942 -
958 TO 963 966 TO 971 974 TO 979 982 TO 987 989 TO 1009 1025 TO 1030 1033 -
1034 TO 1038 1041 TO 1046 1049 TO 1054 1056 TO 1076 1092 TO 1097 1100 TO 1105 -
1108 TO 1113 1116 TO 1121 1123 TO 1143 1159 TO 1164 1167 TO 1172 -
1175 TO 1180 1183 TO 1188 1190 TO 1210 UNI -6.44
1218 TO 1225 1232 1233 1240 1241 1248 1249 1256 1278 TO 1284 UNI -1.524
FLOOR WEIGHT
YRANGE 0 33 FLOAD -1
ELEMENT WEIGHT
2100 2115 2124 2196 2210 2219 2233 2247 2256 2364 2376 2385 2397 2409 2418 -
2516 2526 2535 2545 2555 2564 2652 2660 2669 2677 2685 2694 2772 2778 2787 -
2793 2799 2808 2876 2880 2889 2893 2897 2906 2964 2966 2975 15390 15405 -
15420 15435 15450 15465 15480 15481 15510 15523 15536 15549 15562 15575 -
15588 15589 15616 15627 15638 15649 15660 15671 15682 15683 15708 15717 -
15726 15735 15744 15753 15762 15763 15786 15793 15800 15807 15814 15821 -
15828 15829 15850 15855 15860 15865 15870 15875 15880 15881 15900 15903 -
15906 15909 15912 15915 15918 15919 19487 TO 19489 19496 TO 19501 -
19514 TO 19519 19532 TO 19537 19550 TO 19555 19568 TO 19573 19586 TO 19591 -
19604 TO 19606 22847 TO 22854 22871 TO 22878 22895 TO 22902 22919 TO 22926 -
22943 TO 22950 22967 TO 22974 22991 TO 22998 24998 TO 25000 25007 TO 25012 -
25025 TO 25030 25043 TO 25048 25061 TO 25066 25079 TO 25084 25097 TO 25102 -
25115 TO 25117 28358 TO 28365 28382 TO 28389 28406 TO 28413 28430 TO 28437 -
28454 TO 28461 28478 TO 28485 28502 TO 28509 PRESSURE -56
3478 3493 3494 3578 3592 3593 3607 3621 3622 3696 3708 3709 3721 3733 3734 -
3798 3808 3809 3819 3829 3830 3884 3892 3893 3901 3909 3910 3954 3960 3961 -
3967 3973 3974 4008 4012 4013 4017 4021 4022 4036 4038 4039 15966 15981 -
15996 16011 16026 16041 16056 16057 16070 16083 16096 16109 16122 16135 -
16148 16149 16192 16203 16214 16225 16236 16247 16258 16259 16284 16293 -
16302 16311 16320 16329 16338 16339 16348 16357 16366 16375 16384 16393 -
16402 16405 16426 16431 16436 16441 16446 16451 16456 16457 16476 16479 -
16482 16485 16488 16491 16494 16495 19673 TO 19675 19688 TO 19693 -
19706 TO 19711 19724 TO 19729 19742 TO 19747 19760 TO 19765 19778 TO 19783 -
19790 TO 19792 23031 TO 23046 23079 TO 23086 23103 TO 23110 23113 23116 -
23119 23122 23125 23128 23131 23134 23151 TO 23158 23175 TO 23182 -
25184 TO 25186 25199 TO 25204 25217 TO 25222 25235 TO 25240 25253 TO 25258 -
25271 TO 25276 25289 TO 25294 25301 TO 25303 28542 TO 28557 28590 TO 28597 -
28614 TO 28621 28624 28627 28630 28633 28636 28639 28642 28645 -
28662 TO 28669 28686 TO 28693 PRESSURE -56
2100 2133 2158 3021 3052 3076 3100 3117 3141 3177 3204 3226 3248 3261 3283 -
3317 3340 3360 3380 3389 3409 3441 3460 3478 7696 8362 8636 8910 9184 9450 -
9946 10568 10798 11028 11258 11482 11976 12554 12740 12926 13112 13294 13786 -
14320 14462 14604 14746 14886 19487 19490 19493 19613 19616 19619 19622 -
19625 19628 19631 19634 19637 19640 19643 19646 19649 19652 19655 19658 -
19661 19664 19667 19670 19673 20495 20593 20691 20789 20887 20985 21083 -
21181 21279 21377 21475 21573 21671 21769 21867 21965 22063 22161 22259 -
22357 22455 22553 22651 22749 24998 25001 25004 25124 25127 25130 25133 -
25136 25139 25142 25145 25148 25151 25154 25157 25160 25163 25166 25169 -
25172 25175 25178 25181 25184 26006 26104 26202 26300 26398 26496 26594 -
26692 26790 26888 26986 27084 27182 27280 27378 27476 27574 27672 27770 -
27868 27966 28064 28162 28260 PRESSURE -56
2975 2994 2999 4029 4034 4039 4058 4075 4080 4097 4114 4119 4134 4147 4152 -
4165 4178 4183 4194 4203 4208 4217 4226 4231 8353 8627 8901 9175 9449 9939 -
10561 10791 11021 11251 11481 11971 12549 12735 12921 13107 13293 13783 -
14317 14459 14601 14743 14885 15375 19606 19609 19612 19786 19789 19792 -
19795 19798 19801 19804 19807 19810 19813 19816 19819 19822 19825 19828 -
19831 19834 19837 19840 19843 19846 20592 20690 20788 20886 20984 21082 -
21180 21278 21376 21474 21572 21670 21768 21866 21964 22062 22160 22258 -
22356 22454 22552 22650 22748 22846 25117 25120 25123 25297 25300 25303 -
25306 25309 25312 25315 25318 25321 25324 25327 25330 25333 25336 25339 -
25342 25345 25348 25351 25354 25357 26103 26201 26299 26397 26495 26593 -
26691 26789 26887 26985 27083 27181 27279 27377 27475 27573 27671 27769 -
27867 27965 28063 28161 28259 28357 PRESSURE -56
DEFINE WIND LOAD
TYPE 1 WIND 1
INT 0.701 0.796 0.863 0.907 0.951 0.967 HEIG  10  15  20  25  30  33
EXP 1 JOINT 1 TO 5331
LOAD 1 LOADTYPE Seismic  TITLE EQ +X
1893 LOAD X 1
LOAD 2 LOADTYPE Seismic  TITLE EQ -X
1893 LOAD X -1
LOAD 3 LOADTYPE Seismic  TITLE EQ +Z
1893 LOAD Z 1
LOAD 4 LOADTYPE Seismic  TITLE EQ -Z
1893 LOAD Z -1
LOAD 5 LOADTYPE Wind  TITLE WL +X
WIND LOAD X 1 TYPE 1 YR 0 35.1
LOAD 6 LOADTYPE Wind  TITLE WL -X
WIND LOAD X -1 TYPE 1 YR 0 35.1
LOAD 7 LOADTYPE Wind  TITLE WL +Z
WIND LOAD Z 1 TYPE 1 YR 0 35.1
LOAD 8 LOADTYPE Wind  TITLE WL -Z
WIND LOAD Z -1 TYPE 1 YR 0 35.1
LOAD 9 LOADTYPE Dead  TITLE DL
MEMBER LOAD
1 TO 8 15 16 23 24 31 32 39 61 TO 67 548 TO 555 562 563 570 571 578 579 586 -
608 TO 622 629 630 637 638 645 646 653 675 TO 681 883 TO 890 897 898 905 -
906 913 914 921 943 TO 957 964 965 972 973 980 981 988 1010 TO 1024 1031 -
1032 1039 1040 1047 1048 1055 1077 TO 1091 1098 1099 1106 1107 1114 1115 -
1122 1144 TO 1158 1165 1166 1173 1174 1181 1182 1189 1211 TO 1216 -
1217 UNI GY -12.88
9 TO 14 17 TO 22 25 TO 30 33 TO 38 40 TO 60 556 TO 561 564 TO 569 572 TO 577 -
580 TO 585 587 TO 607 623 TO 628 631 TO 636 639 TO 644 647 TO 652 -
654 TO 674 891 TO 896 899 TO 904 907 TO 912 915 TO 920 922 TO 942 -
958 TO 963 966 TO 971 974 TO 979 982 TO 987 989 TO 1009 1025 TO 1030 1033 -
1034 TO 1038 1041 TO 1046 1049 TO 1054 1056 TO 1076 1092 TO 1097 1100 TO 1105 -
1108 TO 1113 1116 TO 1121 1123 TO 1143 1159 TO 1164 1167 TO 1172 -
1175 TO 1180 1183 TO 1188 1190 TO 1210 UNI GY -6.44
1218 TO 1225 1232 1233 1240 1241 1248 1249 1256 1278 TO 1284 UNI GY -1.524
FLOOR LOAD
YRANGE 0 35.1 FLOAD -1 GY
ELEMENT LOAD
2100 2115 2124 2196 2210 2219 2233 2247 2256 2364 2376 2385 2397 2409 2418 -
2516 2526 2535 2545 2555 2564 2652 2660 2669 2677 2685 2694 2772 2778 2787 -
2793 2799 2808 2876 2880 2889 2893 2897 2906 2964 2966 2975 15390 15405 -
15420 15435 15450 15465 15480 15481 15510 15523 15536 15549 15562 15575 -
15588 15589 15616 15627 15638 15649 15660 15671 15682 15683 15708 15717 -
15726 15735 15744 15753 15762 15763 15786 15793 15800 15807 15814 15821 -
15828 15829 15850 15855 15860 15865 15870 15875 15880 15881 15900 15903 -
15906 15909 15912 15915 15918 15919 19487 TO 19489 19496 TO 19501 -
19514 TO 19519 19532 TO 19537 19550 TO 19555 19568 TO 19573 19586 TO 19591 -
19604 TO 19606 22847 TO 22854 22871 TO 22878 22895 TO 22902 22919 TO 22926 -
22943 TO 22950 22967 TO 22974 22991 TO 22998 24998 TO 25000 25007 TO 25012 -
25025 TO 25030 25043 TO 25048 25061 TO 25066 25079 TO 25084 25097 TO 25102 -
25115 TO 25117 28358 TO 28365 28382 TO 28389 28406 TO 28413 28430 TO 28437 -
28454 TO 28461 28478 TO 28485 28502 TO 28508 -
28509 PR GY -56 -0.25 -0.25 0.25 -0.02
3478 3493 3494 3578 3592 3593 3607 3621 3622 3696 3708 3709 3721 3733 3734 -
3798 3808 3809 3819 3829 3830 3884 3892 3893 3901 3909 3910 3954 3960 3961 -
3967 3973 3974 4008 4012 4013 4017 4021 4022 4036 4038 4039 15966 15981 -
15996 16011 16026 16041 16056 16057 16070 16083 16096 16109 16122 16135 -
16148 16149 16192 16203 16214 16225 16236 16247 16258 16259 16284 16293 -
16302 16311 16320 16329 16338 16339 16348 16357 16366 16375 16384 16393 -
16402 16405 16426 16431 16436 16441 16446 16451 16456 16457 16476 16479 -
16482 16485 16488 16491 16494 16495 19673 TO 19675 19688 TO 19693 -
19706 TO 19711 19724 TO 19729 19742 TO 19747 19760 TO 19765 19778 TO 19783 -
19790 TO 19792 23031 TO 23046 23079 TO 23086 23103 TO 23110 23113 23116 -
23119 23122 23125 23128 23131 23134 23151 TO 23158 23175 TO 23182 -
25184 TO 25186 25199 TO 25204 25217 TO 25222 25235 TO 25240 25253 TO 25258 -
25271 TO 25276 25289 TO 25294 25301 TO 25303 28542 TO 28557 28590 TO 28597 -
28614 TO 28621 28624 28627 28630 28633 28636 28639 28642 28645 -
28662 TO 28669 28686 TO 28693 PR GY -56 -0.25 0.02 0.25 0.25
2100 2133 2158 3021 3052 3076 3100 3117 3141 3177 3204 3226 3248 3261 3283 -
3317 3340 3360 3380 3389 3409 3441 3460 3478 7696 8362 8636 8910 9184 9450 -
9946 10568 10798 11028 11258 11482 11976 12554 12740 12926 13112 13294 13786 -
14320 14462 14604 14746 14886 19487 19490 19493 19613 19616 19619 19622 -
19625 19628 19631 19634 19637 19640 19643 19646 19649 19652 19655 19658 -
19661 19664 19667 19670 19673 20495 20593 20691 20789 20887 20985 21083 -
21181 21279 21377 21475 21573 21671 21769 21867 21965 22063 22161 22259 -
22357 22455 22553 22651 22749 24998 25001 25004 25124 25127 25130 25133 -
25136 25139 25142 25145 25148 25151 25154 25157 25160 25163 25166 25169 -
25172 25175 25178 25181 25184 26006 26104 26202 26300 26398 26496 26594 -
26692 26790 26888 26986 27084 27182 27280 27378 27476 27574 27672 27770 -
27868 27966 28064 28162 28260 PR GY -56 -0.25 -0.25 -0.02 0.25
2975 2994 2999 4029 4034 4039 4058 4075 4080 4097 4114 4119 4134 4147 4152 -
4165 4178 4183 4194 4203 4208 4217 4226 4231 8353 8627 8901 9175 9449 9939 -
10561 10791 11021 11251 11481 11971 12549 12735 12921 13107 13293 13783 -
14317 14459 14601 14743 14885 15375 19606 19609 19612 19786 19789 19792 -
19795 19798 19801 19804 19807 19810 19813 19816 19819 19822 19825 19828 -
19831 19834 19837 19840 19843 19846 20592 20690 20788 20886 20984 21082 -
21180 21278 21376 21474 21572 21670 21768 21866 21964 22062 22160 22258 -
22356 22454 22552 22650 22748 22846 25117 25120 25123 25297 25300 25303 -
25306 25309 25312 25315 25318 25321 25324 25327 25330 25333 25336 25339 -
25342 25345 25348 25351 25354 25357 26103 26201 26299 26397 26495 26593 -
26691 26789 26887 26985 27083 27181 27279 27377 27475 27573 27671 27769 -
27867 27965 28063 28161 28259 28357 PR GY -56 0.02 -0.25 0.25 0.25
FLOOR LOAD
YRANGE 0 30 FLOAD -1 GY
SELFWEIGHT Y -1 LIST ALL
LOAD 10 LOADTYPE Live  TITLE LL
FLOOR LOAD
YRANGE 0 35.1 FLOAD -4 GY
PERFORM ANALYSIS
FINISH
