STAAD SPACE
START JOB INFORMATION
ENGINEER DATE 11-Jul-24
END JOB INFORMATION
INPUT WIDTH 79
UNIT METER KN
JOINT COORDINATESN
1 0 0 0; 2 6 0 0; 3 12 0 0; 4 18 0 0; 5 24 0 0; 6 30 0 0; 7 36 0 0; 8 42 0 0;
9 48 0 0; 10 54 0 0; 11 0 0 4; 12 6 0 4; 13 12 0 4; 14 18 0 4; 15 24 0 4;
16 30 0 4; 17 36 0 4; 18 42 0 4; 19 48 0 4; 20 54 0 4; 21 0 0 8; 22 6 0 8;
23 12 0 8; 24 18 0 8; 25 24 0 8; 26 30 0 8; 27 36 0 8; 28 42 0 8; 29 48 0 8;
30 54 0 8; 31 0 0 12; 32 6 0 12; 33 12 0 12; 34 18 0 12; 35 24 0 12;
36 30 0 12; 37 36 0 12; 38 42 0 12; 39 48 0 12; 40 54 0 12; 41 0 0 16;
42 6 0 16; 43 12 0 16; 44 18 0 16; 45 24 0 16; 46 30 0 16; 47 36 0 16;
48 42 0 16; 49 48 0 16; 50 54 0 16; 51 0 0 20; 52 6 0 20; 53 12 0 20;
54 18 0 20; 55 24 0 20; 56 30 0 20; 57 36 0 20; 58 42 0 20; 59 48 0 20;
60 54 0 20; 61 0 3 0; 62 6 3 0; 63 12 3 0; 64 18 3 0; 65 24 3 0; 66 30 3 0;
67 36 3 0; 68 42 3 0; 69 48 3 0; 70 54 3 0; 71 0 3 4; 72 6 3 4; 73 12 3 4;
74 18 3 4; 75 24 3 4; 76 30 3 4; 77 36 3 4; 78 42 3 4; 79 48 3 4; 80 54 3 4;
81 0 3 8; 82 6 3 8; 83 12 3 8; 84 18 3 8; 85 24 3 8; 86 30 3 8; 87 36 3 8;
88 42 3 8; 89 48 3 8; 90 54 3 8; 91 0 3 12; 92 6 3 12; 93 12 3 12; 94 18 3 12;
95 24 3 12; 96 30 3 12; 97 36 3 12; 98 42 3 12; 99 48 3 12; 100 54 3 12;
101 0 3 16; 102 6 3 16; 103 12 3 16; 104 18 3 16; 105 24 3 16; 106 30 3 16;
107 36 3 16; 108 42 3 16; 109 48 3 16; 110 54 3 16; 111 0 3 20; 112 6 3 20;
113 12 3 20; 114 18 3 20; 115 24 3 20; 116 30 3 20; 117 36 3 20; 118 42 3 20;
119 48 3 20; 120 54 3 20; 121 0 6 0; 122 6 6 0; 123 12 6 0; 124 18 6 0;
125 24 6 0; 126 30 6 0; 127 36 6 0; 128 42 6 0; 129 48 6 0; 130 54 6 0;
# ... 119 like lines cut
MEMBER INCIDENCES
1 1 2; 2 2 3; 3 3 4; 4 4 5; 5 5 6; 6 6 7; 7 7 8; 8 8 9; 9 9 10; 10 1 11;
11 2 12; 12 3 13; 13 4 14; 14 5 15; 15 6 16; 16 7 17; 17 8 18; 18 9 19;
19 10 20; 20 11 21; 21 12 22; 22 13 23; 23 14 24; 24 15 25; 25 16 26; 26 17 27;
27 18 28; 28 19 29; 29 20 30; 30 21 31; 31 22 32; 32 23 33; 33 24 34; 34 25 35;
35 26 36; 36 27 37; 37 28 38; 38 29 39; 39 30 40; 40 31 41; 41 32 42; 42 33 43;
43 34 44; 44 35 45; 45 36 46; 46 37 47; 47 38 48; 48 39 49; 49 40 50; 50 41 51;
51 42 52; 52 43 53; 53 44 54; 54 45 55; 55 46 56; 56 47 57; 57 48 58; 58 49 59;
59 50 60; 60 11 12; 61 12 13; 62 13 14; 63 14 15; 64 15 16; 65 16 17; 66 17 18;
67 18 19; 68 19 20; 69 21 22; 70 22 23; 71 23 24; 72 24 25; 73 25 26; 74 26 27;
75 27 28; 76 28 29; 77 29 30; 78 31 32; 79 32 33; 80 33 34; 81 34 35; 82 35 36;
83 36 37; 84 37 38; 85 38 39; 86 39 40; 87 41 42; 88 42 43; 89 43 44; 90 44 45;
91 45 46; 92 46 47; 93 47 48; 94 48 49; 95 49 50; 96 51 52; 97 52 53; 98 53 54;
99 54 55; 100 55 56; 101 56 57; 102 57 58; 103 58 59; 104 59 60; 105 1 61;
106 2 62; 107 3 63; 108 4 64; 109 5 65; 110 6 66; 111 7 67; 112 8 68; 113 9 69;
114 10 70; 115 11 71; 116 12 72; 117 13 73; 118 14 74; 119 15 75; 120 16 76;
121 17 77; 122 18 78; 123 19 79; 124 20 80; 125 21 81; 126 22 82; 127 23 83;
128 24 84; 129 25 85; 130 26 86; 131 27 87; 132 28 88; 133 29 89; 134 30 90;
135 31 91; 136 32 92; 137 33 93; 138 34 94; 139 35 95; 140 36 96; 141 37 97;
142 38 98; 143 39 99; 144 40 100; 145 41 101; 146 42 102; 147 43 103;
148 44 104; 149 45 105; 150 46 106; 151 47 107; 152 48 108; 153 49 109;
# ... 332 like lines cut
DEFINE MATERIAL START
ISOTROPIC CONCRETE
E 2.17185e+007
POISSON 0.17
DENSITY 23.5616
ALPHA 1e-005
DAMP 0.05
TYPE CONCRETE
STRENGTH FCU 27579
END DEFINE MATERIAL
MEMBER PROPERTY AMERICAN
1 TO 104 765 TO 1908 PRIS YD 0.3 ZD 0.45
105 TO 764 1909 TO 1968 PRIS YD 0.5 ZD 0.5
CONSTANTS
MATERIAL CONCRETE ALL
SUPPORTS
721 TO 780 FIXED
DEFINE 1893 LOAD
ZONE 0.1 RF 5 I 1 SS 2 ST 1 DM 0.05
SELFWEIGHT 1 
MEMBER WEIGHT
1 TO 10 19 20 29 30 39 40 49 50 59 96 TO 104 765 TO 774 783 784 793 794 803 -
804 813 814 823 860 TO 878 887 888 897 898 907 908 917 918 927 964 TO 982 -
991 992 1001 1002 1011 1012 1021 1022 1031 1068 TO 1086 1095 1096 1105 1106 -
1115 1116 1125 1126 1135 1172 TO 1190 1199 1200 1209 1210 1219 1220 1229 -
1230 1239 1276 TO 1294 1303 1304 1313 1314 1323 1324 1333 1334 1343 1380 -
1381 TO 1398 1407 1408 1417 1418 1427 1428 1437 1438 1447 1484 TO 1502 1511 -
1512 1521 1522 1531 1532 1541 1542 1551 1588 TO 1606 1615 1616 1625 1626 -
1635 1636 1645 1646 1655 1692 TO 1710 1719 1720 1729 1730 1739 1740 1749 -
1750 1759 1796 TO 1804 UNI -17.25
11 TO 18 21 TO 28 31 TO 38 41 TO 48 51 TO 58 60 TO 95 116 TO 123 126 TO 133 -
136 TO 143 146 TO 153 176 TO 183 186 TO 193 196 TO 203 206 TO 213 -
236 TO 243 246 TO 253 256 TO 263 266 TO 273 296 TO 303 306 TO 313 -
316 TO 323 326 TO 333 356 TO 363 366 TO 373 376 TO 383 386 TO 393 -
416 TO 423 426 TO 433 436 TO 443 446 TO 453 476 TO 483 486 TO 493 -
496 TO 503 506 TO 513 536 TO 543 546 TO 553 556 TO 563 566 TO 573 -
596 TO 603 606 TO 613 616 TO 623 626 TO 633 656 TO 663 666 TO 673 -
676 TO 683 686 TO 693 775 TO 782 785 TO 792 795 TO 802 805 TO 812 -
815 TO 822 824 TO 859 879 TO 886 889 TO 896 899 TO 906 909 TO 916 -
919 TO 926 928 TO 963 983 TO 990 993 TO 1000 1003 TO 1010 1013 TO 1020 1023 -
1024 TO 1030 1032 TO 1067 1087 TO 1094 1097 TO 1104 1107 TO 1114 1117 TO 1124 -
1127 TO 1134 1136 TO 1171 1191 TO 1198 1201 TO 1208 1211 TO 1218 -
1221 TO 1228 1231 TO 1238 1240 TO 1275 1295 TO 1302 1305 TO 1312 -
1315 TO 1322 1325 TO 1332 1335 TO 1342 1344 TO 1379 1399 TO 1406 -
1409 TO 1416 1419 TO 1426 1429 TO 1436 1439 TO 1446 1448 TO 1483 -
1503 TO 1510 1513 TO 1520 1523 TO 1530 1533 TO 1540 1543 TO 1550 -
1552  UNI -8.625
1805 TO 1814 1823 1824 1833 1834 1843 1844 1853 1854 1863 1900 TO 1907 -
1908 UNI -1.4375
DEFINE WIND LOAD
TYPE 1 WIND 1
<! STAAD PRO GENERATED DATA DO NOT MODIFY !!!
ASCE-7-2010:PARAMS 44.000 KMPH 0 1 1 0 0.000 FT 0.000 FT 0.000 FT 1 -
1 33.000 M 54.000 M 20.000 M 2.000 0.010 0 -
0 0 0 0 1.002 1.000 1.000 0.850 0 -
0 0 0 0.843 0.800 -0.550
!> END GENERATED DATA BLOCK
INT 0.0734782 0.0734782 0.0760633 0.0782201 0.0800873 0.0817437 0.0832387 -
 0.0846055 0.0858678 0.0870429 0.0881439 0.0891813 0.0901631 0.091096 0.0919855 -
 0.0928361 0.0936517 0.0944356 0.0951905 0.0959188 0.711476 HEIG  0  4.572 -
 6.096  7.62  9.144  10.668  12.192  13.716  15.24  16.764  18.288  19.812 -
 21.336  22.86  24.384  25.908  27.432  28.956  30.48  32.004  12.192
EXP 1 JOINT 1 TO 780
LOAD 1 LOADTYPE Seismic  TITLE EQ +X
1893 LOAD X 1
LOAD 2 LOADTYPE Seismic  TITLE EQ -X
1893 LOAD X -1
LOAD 3 LOADTYPE Seismic  TITLE EQ +Z
1893 LOAD Z 1
LOAD 4 LOADTYPE Seismic  TITLE EQ -Z
1893 LOAD Z -1
LOAD 5 LOADTYPE Wind  TITLE W +X
WIND LOAD X 1 TYPE 1 YR 0 33
LOAD 6 LOADTYPE Wind  TITLE W -X
WIND LOAD X -1 TYPE 1 YR 0 30
LOAD 7 LOADTYPE Wind  TITLE W +Z
WIND LOAD Z 1 TYPE 1 YR 0 30
LOAD 8 LOADTYPE Wind  TITLE W -Z
WIND LOAD Z -1 TYPE 1 YR 0 30
LOAD 9 LOADTYPE Dead  TITLE DL
SELFWEIGHT Y -1 
MEMBER LOAD
1 TO 10 19 20 29 30 39 40 49 50 59 96 TO 104 765 TO 774 783 784 793 794 803 -
804 813 814 823 860 TO 878 887 888 897 898 907 908 917 918 927 964 TO 982 -
991 992 1001 1002 1011 1012 1021 1022 1031 1068 TO 1086 1095 1096 1105 1106 -
1115 1116 1125 1126 1135 1172 TO 1190 1199 1200 1209 1210 1219 1220 1229 -
1230 1239 1276 TO 1294 1303 1304 1313 1314 1323 1324 1333 1334 1343 1380 -
1381 TO 1398 1407 1408 1417 1418 1427 1428 1437 1438 1447 1484 TO 1502 1511 -
1512 1521 1522 1531 1532 1541 1542 1551 1588 TO 1606 1615 1616 1625 1626 -
1635 1636 1645 1646 1655 1692 TO 1710 1719 1720 1729 1730 1739 1740 1749 -
1750 1759 1796 TO 1804 UNI GY -17.25
11 TO 18 21 TO 28 31 TO 38 41 TO 48 51 TO 58 60 TO 95 116 TO 123 126 TO 133 -
136 TO 143 146 TO 153 176 TO 183 186 TO 193 196 TO 203 206 TO 213 -
236 TO 243 246 TO 253 256 TO 263 266 TO 273 296 TO 303 306 TO 313 -
316 TO 323 326 TO 333 356 TO 363 366 TO 373 376 TO 383 386 TO 393 -
416 TO 423 426 TO 433 436 TO 443 446 TO 453 476 TO 483 486 TO 493 -
496 TO 503 506 TO 513 536 TO 543 546 TO 553 556 TO 563 566 TO 573 -
596 TO 603 606 TO 613 616 TO 623 626 TO 633 656 TO 663 666 TO 673 -
676 TO 683 686 TO 693 775 TO 782 785 TO 792 795 TO 802 805 TO 812 -
815 TO 822 824 TO 859 879 TO 886 889 TO 896 899 TO 906 909 TO 916 -
919 TO 926 928 TO 963 983 TO 990 993 TO 1000 1003 TO 1010 1013 TO 1020 1023 -
1024 TO 1030 1032 TO 1067 1087 TO 1094 1097 TO 1104 1107 TO 1114 1117 TO 1124 -
1127 TO 1134 1136 TO 1171 1191 TO 1198 1201 TO 1208 1211 TO 1218 -
1221 TO 1228 1231 TO 1238 1240 TO 1275 1295 TO 1302 1305 TO 1312 -
1315 TO 1322 1325 TO 1332 1335 TO 1342 1344 TO 1379 1399 TO 1406 -
1409 TO 1416 1419 TO 1426 1429 TO 1436 1439 TO 1446 1448 TO 1483 -
1503 TO 1510 1513 TO 1520 1523 TO 1530 1533 TO 1540 1543 TO 1550 -
1552  UNI GY -8.625
1553 TO 1587 1607 TO 1614 1617 TO 1624 1627 TO 1634 1637 TO 1644 1647 TO 1654 -
1656 TO 1691 1711 TO 1718 1721 TO 1728 1731 TO 1738 1741 TO 1748 -
1751 TO 1758 1760 TO 1795 1920 TO 1927 1930 TO 1937 1940 TO 1947 -
1950 TO 1957 UNI GY -8.625
1805 TO 1814 1823 1824 1833 1834 1843 1844 1853 1854 1863 1900 TO 1907 -
1908 UNI GY -1.4375
FLOOR LOAD
YRANGE 0 33 FLOAD -1 GY
LOAD 10 LOADTYPE Live REDUCIBLE TITLE LL
FLOOR LOAD
YRANGE 0 33 FLOAD -2 GY
LOAD COMB 11 GENERATED INDIAN CODE GENRAL_STRUCTURES 1
9 1.5 10 1.5 
LOAD COMB 12 GENERATED INDIAN CODE GENRAL_STRUCTURES 2
9 1.2 10 1.2 5 1.2 
LOAD COMB 13 GENERATED INDIAN CODE GENRAL_STRUCTURES 3
9 1.2 10 1.2 6 1.2 
LOAD COMB 14 GENERATED INDIAN CODE GENRAL_STRUCTURES 4
9 1.2 10 1.2 7 1.2 
LOAD COMB 15 GENERATED INDIAN CODE GENRAL_STRUCTURES 5
9 1.2 10 1.2 8 1.2 
LOAD COMB 16 GENERATED INDIAN CODE GENRAL_STRUCTURES 6
9 1.2 10 1.2 5 -1.2 
LOAD COMB 17 GENERATED INDIAN CODE GENRAL_STRUCTURES 7
9 1.2 10 1.2 6 -1.2 
LOAD COMB 18 GENERATED INDIAN CODE GENRAL_STRUCTURES 8
9 1.2 10 1.2 7 -1.2 
LOAD COMB 19 GENERATED INDIAN CODE GENRAL_STRUCTURES 9
9 1.2 10 1.2 8 -1.2 
LOAD COMB 20 GENERATED INDIAN CODE GENRAL_STRUCTURES 10
9 1.2 10 1.2 1 1.2 
LOAD COMB 21 GENERATED INDIAN CODE GENRAL_STRUCTURES 11
9 1.2 10 1.2 2 1.2 
LOAD COMB 22 GENERATED INDIAN CODE GENRAL_STRUCTURES 12
9 1.2 10 1.2 3 1.2 
LOAD COMB 23 GENERATED INDIAN CODE GENRAL_STRUCTURES 13
9 1.2 10 1.2 4 1.2 
LOAD COMB 24 GENERATED INDIAN CODE GENRAL_STRUCTURES 14
9 1.2 10 1.2 1 -1.2 
LOAD COMB 25 GENERATED INDIAN CODE GENRAL_STRUCTURES 15
9 1.2 10 1.2 2 -1.2 
LOAD COMB 26 GENERATED INDIAN CODE GENRAL_STRUCTURES 16
9 1.2 10 1.2 3 -1.2 
LOAD COMB 27 GENERATED INDIAN CODE GENRAL_STRUCTURES 17
9 1.2 10 1.2 4 -1.2 
LOAD COMB 28 GENERATED INDIAN CODE GENRAL_STRUCTURES 18
9 1.5 5 1.5 
LOAD COMB 29 GENERATED INDIAN CODE GENRAL_STRUCTURES 19
9 1.5 6 1.5 
LOAD COMB 30 GENERATED INDIAN CODE GENRAL_STRUCTURES 20
9 1.5 7 1.5 
# ... 42 like lines cut
PERFORM ANALYSIS
START CONCRETE DESIGN
CODE INDIAN
UNIT MMS NEWTON
FC 30 ALL
FYMAIN 550 ALL
FYSEC 415 ALL
MAXMAIN 25 ALL
MAXSEC 12 ALL
MINMAIN 16 ALL
MINSEC 10 ALL
DESIGN BEAM 1 TO 104 765 TO 1908
DESIGN COLUMN 105 TO 764 1909 TO 1968
CONCRETE TAKE
END CONCRETE DESIGN
PRINT STORY DRIFT 0.025000
FINISH
