STAAD SPACE
START JOB INFORMATION
ENGINEER DATE 25-Jul-24
END JOB INFORMATION
INPUT WIDTH 79
UNIT METER KN
JOINT COORDINATES
1 0 0 0; 2 6 0 0; 3 12 0 0; 4 18 0 0; 5 24 0 0; 6 30 0 0; 7 36 0 0; 8 42 0 0;
9 48 0 0; 10 54 0 0; 11 0 0 4; 12 6 0 4; 13 12 0 4; 14 18 0 4; 15 24 0 4;
16 30 0 4; 17 36 0 4; 18 42 0 4; 19 48 0 4; 20 54 0 4; 21 0 0 8; 22 6 0 8;
23 12 0 8; 24 18 0 8; 25 24 0 8; 26 30 0 8; 27 36 0 8; 28 42 0 8; 29 48 0 8;
30 54 0 8; 31 0 0 12; 32 6 0 12; 33 12 0 12; 34 18 0 12; 35 24 0 12;
36 30 0 12; 37 36 0 12; 38 42 0 12; 39 48 0 12; 40 54 0 12; 41 0 0 16;
42 6 0 16; 43 12 0 16; 44 18 0 16; 45 24 0 16; 46 30 0 16; 47 36 0 16;
48 42 0 16; 49 48 0 16; 50 54 0 16; 51 0 0 20; 52 6 0 20; 53 12 0 20;
54 18 0 20; 55 24 0 20; 56 30 0 20; 57 36 0 20; 58 42 0 20; 59 48 0 20;
60 54 0 20; 61 0 -2.1 0; 62 6 -2.1 0; 63 12 -2.1 0; 64 18 -2.1 0; 65 24 -2.1 0;
66 30 -2.1 0; 67 36 -2.1 0; 68 42 -2.1 0; 69 48 -2.1 0; 70 54 -2.1 0;
71 0 -2.1 4; 72 6 -2.1 4; 73 12 -2.1 4; 74 18 -2.1 4; 75 24 -2.1 4;
76 30 -2.1 4; 77 36 -2.1 4; 78 42 -2.1 4; 79 48 -2.1 4; 80 54 -2.1 4;
81 0 -2.1 8; 82 6 -2.1 8; 83 12 -2.1 8; 84 18 -2.1 8; 85 24 -2.1 8;
86 30 -2.1 8; 87 36 -2.1 8; 88 42 -2.1 8; 89 48 -2.1 8; 90 54 -2.1 8;
91 0 -2.1 12; 92 6 -2.1 12; 93 12 -2.1 12; 94 18 -2.1 12; 95 24 -2.1 12;
96 30 -2.1 12; 97 36 -2.1 12; 98 42 -2.1 12; 99 48 -2.1 12; 100 54 -2.1 12;
101 0 -2.1 16; 102 6 -2.1 16; 103 12 -2.1 16; 104 18 -2.1 16; 105 24 -2.1 16;
106 30 -2.1 16; 107 36 -2.1 16; 108 42 -2.1 16; 109 48 -2.1 16; 110 54 -2.1 16;
111 0 -2.1 20; 112 6 -2.1 20; 113 12 -2.1 20; 114 18 -2.1 20; 115 24 -2.1 20;
# ... 1476 like lines cut
MEMBER INCIDENCES
2 2 3; 3 3 4; 4 4 5; 5 5 6; 6 6 7; 7 7 8; 8 8 9; 11 2 12; 12 3 13; 13 4 14;
14 5 15; 15 6 16; 16 7 17; 17 8 18; 18 9 19; 20 11 21; 21 12 22; 22 13 23;
23 14 24; 24 15 25; 25 16 26; 26 17 27; 27 18 28; 28 19 29; 29 20 30; 30 21 31;
31 22 32; 32 23 33; 33 24 34; 34 25 35; 35 26 36; 36 27 37; 37 28 38; 38 29 39;
39 30 40; 40 31 41; 41 32 42; 42 33 43; 43 34 44; 44 35 45; 45 36 46; 46 37 47;
47 38 48; 48 39 49; 49 40 50; 51 42 52; 52 43 53; 53 44 54; 54 45 55; 55 46 56;
56 47 57; 57 48 58; 58 49 59; 60 11 12; 61 12 13; 62 13 14; 63 14 15; 64 15 16;
65 16 17; 66 17 18; 67 18 19; 68 19 20; 69 21 22; 70 22 23; 71 23 24; 72 24 25;
73 25 26; 74 26 27; 75 27 28; 76 28 29; 77 29 30; 78 31 32; 79 32 33; 80 33 34;
81 34 35; 82 35 36; 83 36 37; 84 37 38; 85 38 39; 86 39 40; 87 41 42; 88 42 43;
89 43 44; 90 44 45; 91 45 46; 92 46 47; 93 47 48; 94 48 49; 95 49 50; 97 52 53;
98 53 54; 99 54 55; 100 55 56; 101 56 57; 102 57 58; 103 58 59; 107 3 63;
108 4 64; 109 5 65; 110 6 66; 111 7 67; 112 8 68; 116 12 72; 117 13 73;
118 14 74; 119 15 75; 120 16 76; 121 17 77; 122 18 78; 123 19 79; 125 21 81;
126 22 82; 127 23 83; 128 24 84; 129 25 85; 130 26 86; 131 27 87; 132 28 88;
133 29 89; 134 30 90; 135 31 91; 136 32 92; 137 33 93; 138 34 94; 139 35 95;
140 36 96; 141 37 97; 142 38 98; 143 39 99; 144 40 100; 146 42 102; 147 43 103;
148 44 104; 149 45 105; 150 46 106; 151 47 107; 152 48 108; 153 49 109;
157 53 113; 158 54 114; 159 55 115; 160 56 116; 161 57 117; 162 58 118;
167 3 123; 168 4 124; 169 5 125; 170 6 126; 171 7 127; 172 8 128; 176 12 132;
# ... 292 like lines cut
ELEMENT INCIDENCES SHELL
1971 721 781 782 783; 1973 781 784 785 782; 1975 784 786 787 785;
1977 786 788 789 787; 1979 788 790 791 789; 1981 790 792 793 791;
1983 792 794 795 793; 1985 794 796 797 795; 1987 796 798 799 797;
1989 798 800 801 799; 1991 800 802 803 801; 1993 802 722 804 803;
1995 783 782 805 806; 1996 782 785 807 805; 1997 785 787 808 807;
1998 787 789 809 808; 1999 789 791 810 809; 2000 791 793 811 810;
2001 793 795 812 811; 2002 795 797 813 812; 2003 797 799 814 813;
2004 799 801 815 814; 2005 801 803 816 815; 2007 803 804 817 816;
2009 806 805 818 819; 2010 805 807 820 818; 2011 807 808 821 820;
2012 808 809 822 821; 2013 809 810 823 822; 2014 810 811 824 823;
2015 811 812 825 824; 2016 812 813 826 825; 2017 813 814 827 826;
2018 814 815 828 827; 2019 815 816 829 828; 2021 816 817 830 829;
2023 819 818 831 832; 2024 818 820 833 831; 2025 820 821 834 833;
2026 821 822 835 834; 2027 822 823 836 835; 2028 823 824 837 836;
2029 824 825 838 837; 2030 825 826 839 838; 2031 826 827 840 839;
2032 827 828 841 840; 2033 828 829 842 841; 2035 829 830 843 842;
2037 832 831 844 845; 2038 831 833 846 844; 2039 833 834 847 846;
2040 834 835 848 847; 2041 835 836 849 848; 2042 836 837 850 849;
2043 837 838 851 850; 2044 838 839 852 851; 2045 839 840 853 852;
2046 840 841 854 853; 2047 841 842 855 854; 2049 842 843 856 855;
# ... 1847 like lines cut
ELEMENT PROPERTY
1971 1973 1975 1977 1979 1981 1983 1985 1987 1989 1991 1993 1995 TO 2005 2007 -
2009 TO 2019 2021 2023 TO 2033 2035 2037 TO 2047 2049 2051 2053 2055 2057 -
2059 2061 2063 2065 2067 2069 2071 2072 2074 TO 2084 2086 2088 TO 2098 2100 -
2102 TO 2112 2114 2116 TO 2126 2128 2130 TO 2140 2142 2144 2146 2148 2150 -
2152 2154 2156 2158 2160 2162 2164 2165 2167 TO 2177 2179 2181 TO 2191 2193 -
2195 TO 2205 2207 2209 TO 2219 2221 2223 TO 2233 2235 2237 2239 2241 2243 -
2245 2247 2249 2251 2253 2255 2257 2258 2260 TO 2270 2272 2274 TO 2284 2286 -
2288 TO 2298 2300 2302 TO 2312 2314 2316 TO 2326 2328 2330 2332 2334 2336 -
2338 2340 2342 2344 2346 2348 2350 2351 2353 TO 2363 2365 2367 TO 2377 2379 -
2381 TO 2391 2393 2395 TO 2405 2407 2409 TO 2419 2421 2423 2425 2427 2429 -
2431 2433 2435 2437 2439 2441 2443 2444 2446 TO 2456 2458 2460 TO 2470 2472 -
2474 TO 2484 2486 2488 TO 2498 2500 2502 TO 2512 2514 2516 2518 2520 2522 -
2524 2526 2528 2530 2532 2534 2536 2537 2539 TO 2549 2551 2553 TO 2563 2565 -
2567 TO 2577 2579 2581 TO 2591 2593 2595 TO 2605 2607 2609 2611 2613 2615 -
2617 2619 2621 2623 2625 2627 2629 2630 2632 TO 2642 2644 2646 TO 2656 2658 -
2660 TO 2670 2672 2674 TO 2684 2686 2688 TO 2698 2700 2702 2704 2706 2708 -
2710 2712 2714 2716 2718 2720 2722 2723 2725 TO 2735 2737 2739 TO 2749 2751 -
2753 TO 2763 2765 2767 TO 2777 2779 THICKNESS 0.25
2781 TO 2791 2793 2795 2797 2799 2801 2803 2805 2807 2809 2811 2813 2815 2816 -
2818 TO 2828 2830 2832 TO 2842 2844 2846 TO 2856 2858 2860 TO 2870 2872 2874 -
2875 TO 2884 2886 2888 2890 2892 2894 2896 2898 2900 2902 2904 2906 2908 2909 -
2911 TO 2921 2923 2925 TO 2935 2937 2939 TO 2949 2951 2953 TO 2963 2965 2967 -
2968 TO 2977 2979 2981 2983 2985 2987 2989 2991 2993 2995 2997 2999 3001 3002 -
3004 TO 3014 3016 3018 TO 3028 3030 3032 TO 3042 3044 TO 3056 3058 3060 3062 -
3064 3066 3068 3070 3072 TO 3079 3081 TO 3088 3090 TO 3097 3099 TO 3106 3108 -
3110 3112 3114 3116 3118 3120 3122 TO 3130 3132 TO 3139 3141 TO 3148 3150 -
3151 TO 3157 3159 TO 3166 3168 3170 3172 3174 3176 3178 3180 3182 TO 3190 -
3192 TO 3199 3201 TO 3208 3210 TO 3217 3219 TO 3226 3228 3230 3232 3234 3236 -
3238 3240 3242 TO 3250 3252 TO 3259 3261 TO 3268 3270 TO 3277 3279 TO 3286 -
3288 3290 3292 3294 3296 3298 3300 3302 TO 3310 3312 TO 3319 3321 TO 3328 -
3330 TO 3337 3339 TO 3346 3348 3350 3352 3354 3356 3358 3360 3362 TO 3370 -
3372 TO 3379 3381 TO 3388 3390 TO 3397 3399 TO 3406 3408 3410 3412 3414 3416 -
3418 3420 3422 TO 3430 3432 TO 3439 3441 TO 3448 3450 TO 3457 3459 TO 3466 -
3468 3470 3472 3474 3476 3478 3480 3482 TO 3490 3492 TO 3499 3501 TO 3508 -
3510 TO 3517 3519 TO 3526 3528 3530 3532 3534 3536 3538 3540 3542 TO 3550 -
3552 TO 3559 THICKNESS 0.25
3561 TO 3568 3570 TO 3577 3579 TO 3586 3588 3590 3592 3594 3596 3598 3600 -
3602 TO 3610 3612 TO 3619 3621 TO 3628 3630 TO 3637 3639 TO 3646 3648 3650 -
3652 3654 3656 3658 3660 3662 TO 3670 3672 TO 3679 3681 TO 3688 3690 TO 3697 -
3699 TO 3706 3708 3710 3712 3714 3716 3718 3720 3722 TO 3730 3732 TO 3739 -
3741 TO 3748 3750 TO 3758 3761 3763 3765 3767 3769 3771 3773 3775 3777 3779 -
3781 3783 3785 TO 3795 3797 3799 TO 3809 3811 3813 TO 3823 3825 3827 TO 3837 -
3839 3841 3843 3845 3847 3849 3851 3853 3855 3857 3859 3861 3862 -
3864 TO 3874 3876 3878 TO 3888 3890 3892 TO 3902 3904 3906 TO 3916 3918 3920 -
3921 TO 3930 3932 3934 3936 3938 3940 3942 3944 3946 3948 3950 3952 3954 3955 -
3957 TO 3967 3969 3971 TO 3981 3983 3985 TO 3995 3997 3999 TO 4009 4011 4013 -
4014 TO 4023 4025 4027 4029 4031 4033 4035 4037 4039 4041 4043 4045 4047 4048 -
4050 TO 4060 4062 4064 TO 4074 4076 4078 TO 4088 4090 4092 TO 4102 4104 4106 -
4107 TO 4116 4118 4120 4122 4124 4126 4128 4130 4132 4134 4136 4138 4140 4141 -
4143 TO 4153 4155 4157 TO 4167 4169 4171 TO 4181 4183 4185 TO 4195 4197 4199 -
4200 TO 4209 4211 4213 4215 4217 4219 4221 4223 4225 4227 4229 4231 4233 4234 -
4236 TO 4246 4248 4250 TO 4260 4262 4264 TO 4274 4276 4278 TO 4288 4290 4292 -
4293 TO 4302 4304 4306 4308 4310 4312 4314 4316 4318 4320 4322 4324 4326 4327 -
4329 TO 4339 4341 4343 TO 4353 4355 THICKNESS 0.25
4357 TO 4367 4369 4371 TO 4381 4383 4385 TO 4395 4397 4399 4401 4403 4405 -
4407 4409 4411 4413 4415 4417 4419 4420 4422 TO 4432 4434 4436 TO 4446 4448 -
4450 TO 4460 4462 4464 TO 4474 4476 4478 TO 4488 4490 4492 4494 4496 4498 -
4500 4502 4504 4506 4508 4510 4512 4513 4515 TO 4525 4527 4529 TO 4539 4541 -
4543 TO 4553 4555 4557 TO 4567 4569 4571 TO 4581 4583 4585 4587 4589 4591 -
4593 4595 4597 4599 4601 4603 4605 4606 4608 TO 4618 4620 4622 TO 4632 4634 -
4636 TO 4646 4648 4650 TO 4660 4662 4664 TO 4674 4676 4678 4680 4682 4684 -
4686 4688 4690 4692 4694 4696 4698 4699 4701 TO 4711 4713 4715 TO 4725 4727 -
4729 TO 4739 4741 4743 TO 4753 4755 4757 TO 4767 4769 4771 4773 4775 4777 -
4779 4781 4783 4785 4787 4789 4791 4792 4794 TO 4804 4806 4808 TO 4818 4820 -
4822 TO 4832 4834 TO 4846 4849 4851 4853 4855 4857 4859 4861 4862 -
4864 TO 4871 4873 TO 4880 4882 TO 4889 4891 TO 4898 4900 4902 4904 4906 4908 -
4910 4912 4913 4915 TO 4922 4924 TO 4931 4933 TO 4940 4942 TO 4949 -
4951 TO 4958 4960 4962 4964 4966 4968 4970 4972 4973 4975 TO 4982 -
4984 TO 4991 4993 TO 5000 5002 TO 5009 5011 TO 5018 5020 5022 5024 5026 5028 -
5030 5032 5033 5035 TO 5042 5044 TO 5051 5053 TO 5060 5062 TO 5069 -
5071 TO 5078 5080 5082 5084 5086 5088 5090 5092 5093 5095 TO 5102 -
5104 TO 5111 5113 TO 5120 5122 TO 5129 5131 TO 5138 5140 -
5142  THICKNESS 0.25
5144 5146 5148 5150 5152 5153 5155 TO 5162 5164 TO 5171 5173 TO 5180 5182 -
5183 TO 5189 5191 TO 5198 5200 5202 5204 5206 5208 5210 5212 5213 -
5215 TO 5222 5224 TO 5231 5233 TO 5240 5242 TO 5249 5251 TO 5258 5260 5262 -
5264 5266 5268 5270 5272 5273 5275 TO 5282 5284 TO 5291 5293 TO 5300 5302 -
5303 TO 5309 5311 TO 5318 5320 5322 5324 5326 5328 5330 5332 5333 -
5335 TO 5342 5344 TO 5351 5353 TO 5360 5362 TO 5369 5371 TO 5378 5380 5382 -
5384 5386 5388 5390 5392 5393 5395 TO 5402 5404 TO 5411 5413 TO 5420 5422 -
5423 TO 5429 5431 TO 5438 5440 5442 5444 5446 5448 5450 5452 5453 -
5455 TO 5462 5464 TO 5471 5473 TO 5480 5482 TO 5489 5491 TO 5498 5500 5502 -
5504 5506 5508 5510 5512 5513 5515 TO 5522 5524 TO 5531 5533 TO 5548 5551 -
5553 5555 5557 5559 5561 5563 5565 5567 5569 5571 5573 5575 TO 5585 5587 -
5589 TO 5599 5601 5603 TO 5613 5615 5617 TO 5627 5629 5631 5633 5635 5637 -
5639 5641 5643 5645 5647 5649 5651 5652 5654 TO 5664 5666 5668 TO 5678 5680 -
5682 TO 5692 5694 5696 TO 5706 5708 5710 TO 5720 5722 5724 5726 5728 5730 -
5732 5734 5736 5738 5740 5742 5744 5745 5747 TO 5757 5759 5761 TO 5771 5773 -
5775 TO 5785 5787 5789 TO 5799 5801 5803 TO 5813 5815 5817 5819 5821 5823 -
5825 5827 5829 5831 5833 5835 5837 5838 5840 TO 5850 5852 5854 TO 5864 5866 -
5868 TO 5878 5880 5882 TO 5892 5894 5896 TO 5906 5908 5910 5912 -
5914  THICKNESS 0.25
5916 5918 5920 5922 5924 5926 5928 5930 5931 5933 TO 5943 5945 5947 TO 5957 -
5959 5961 TO 5971 5973 5975 TO 5985 5987 5989 TO 5999 6001 6003 6005 6007 -
6009 6011 6013 6015 6017 6019 6021 6023 6024 6026 TO 6036 6038 6040 TO 6050 -
6052 6054 TO 6064 6066 6068 TO 6078 6080 6082 TO 6092 6094 6096 6098 6100 -
6102 6104 6106 6108 6110 6112 6114 6116 6117 6119 TO 6129 6131 6133 TO 6143 -
6145 6147 TO 6157 6159 6161 TO 6171 6173 6175 TO 6185 6187 6189 6191 6193 -
6195 6197 6199 6201 6203 6205 6207 6209 6210 6212 TO 6222 6224 6226 TO 6236 -
6238 6240 TO 6250 6252 6254 TO 6264 6266 6268 TO 6278 6280 6282 6284 6286 -
6288 6290 6292 6294 6296 6298 6300 6302 6303 6305 TO 6315 6317 6319 TO 6329 -
6331 6333 TO 6343 6345 6347 TO 6357 6359 6361 TO 6371 6373 6375 6377 6379 -
6381 6383 6385 6387 6389 6391 6393 6395 6396 6398 TO 6408 6410 6412 TO 6422 -
6424 6426 TO 6436 6438 6440 TO 6450 6452 6454 TO 6464 6466 6468 6470 6472 -
6474 6476 6478 6480 6482 6484 6486 6488 6489 6491 TO 6501 6503 6505 TO 6515 -
6517 6519 TO 6529 6531 6533 TO 6543 6545 6547 TO 6557 6559 6561 6563 6565 -
6567 6569 6571 6573 6575 6577 6579 6581 6582 6584 TO 6594 6596 6598 TO 6608 -
6610 6612 TO 6622 6624 TO 6636 6639 6641 6643 6645 6647 6649 6651 6652 6654 -
6655 TO 6661 6663 TO 6670 6672 TO 6679 6681 TO 6688 6690 6692 6694 6696 6698 -
6700 6702 6703 6705 TO 6712 6714 THICKNESS 0.25
6715 TO 6721 6723 TO 6730 6732 TO 6739 6741 TO 6748 6750 6752 6754 6756 6758 -
6760 6762 6763 6765 TO 6772 6774 TO 6781 6783 TO 6790 6792 TO 6799 -
6801 TO 6808 6810 6812 6814 6816 6818 6820 6822 6823 6825 TO 6832 -
6834 TO 6841 6843 TO 6850 6852 TO 6859 6861 TO 6868 6870 6872 6874 6876 6878 -
6880 6882 6883 6885 TO 6892 6894 TO 6901 6903 TO 6910 6912 TO 6919 -
6921 TO 6928 6930 6932 6934 6936 6938 6940 6942 6943 6945 TO 6952 -
6954 TO 6961 6963 TO 6970 6972 TO 6979 6981 TO 6988 6990 6992 6994 6996 6998 -
7000 7002 7003 7005 TO 7012 7014 TO 7021 7023 TO 7030 7032 TO 7039 -
7041 TO 7048 7050 7052 7054 7056 7058 7060 7062 7063 7065 TO 7072 -
7074 TO 7081 7083 TO 7090 7092 TO 7099 7101 TO 7108 7110 7112 7114 7116 7118 -
7120 7122 7123 7125 TO 7132 7134 TO 7141 7143 TO 7150 7152 TO 7159 -
7161 TO 7168 7170 7172 7174 7176 7178 7180 7182 7183 7185 TO 7192 -
7194 TO 7201 7203 TO 7210 7212 TO 7219 7221 TO 7228 7230 7232 7234 7236 7238 -
7240 7242 7243 7245 TO 7252 7254 TO 7261 7263 TO 7270 7272 TO 7279 -
7281 TO 7288 7290 7292 7294 7296 7298 7300 7302 7303 7305 TO 7312 -
7314 TO 7321 7323 TO 7338 7341 7343 7345 7347 7349 7351 7353 7355 7357 7359 -
7361 7363 7365 7367 7369 7371 7373 7375 7377 7379 7381 7383 7385 7387 7389 -
7391 7393 7395 7397 7399 7401 7403 7405 7407 7409 7411 7413 7415 7417 7419 -
7421 7423 7425 7427 THICKNESS 0.25
7429 7431 7433 7435 7437 7439 7441 7443 7445 7447 7449 7451 7453 7455 7457 -
7459 7461 7463 7465 7467 7469 7471 7473 TO 7477 7479 TO 7484 7486 TO 7491 -
7493 TO 7498 7500 TO 7505 7507 TO 7512 7514 TO 7519 7521 TO 7526 -
7528 TO 7533 7535 TO 7540 7542 TO 7547 7549 7551 TO 7555 7557 TO 7562 7564 -
7565 TO 7569 7571 TO 7576 7578 TO 7583 7585 TO 7590 7592 TO 7597 7599 TO 7604 -
7606 TO 7611 7613 TO 7618 7620 TO 7625 7627 7629 TO 7633 7635 TO 7640 7642 -
7643 TO 7647 7649 TO 7654 7656 TO 7661 7663 TO 7668 7670 TO 7675 7677 TO 7682 -
7684 TO 7689 7691 TO 7696 7698 TO 7703 7705 7707 TO 7711 7713 TO 7718 7720 -
7721 TO 7725 7727 TO 7732 7734 TO 7739 7741 TO 7746 7748 TO 7753 7755 TO 7760 -
7762 TO 7767 7769 TO 7774 7776 TO 7781 7783 7785 TO 7789 7791 TO 7796 7798 -
7799 TO 7803 7805 TO 7810 7812 TO 7817 7819 TO 7824 7826 TO 7831 7833 TO 7838 -
7840 TO 7845 7847 TO 7852 7854 TO 7859 7861 7863 TO 7867 7869 TO 7874 7876 -
7877 TO 7881 7883 TO 7888 7890 TO 7895 7897 TO 7902 7904 TO 7909 7911 TO 7916 -
7918 TO 7923 7925 TO 7930 7932 TO 7937 7939 7941 TO 7945 7947 TO 7952 7954 -
7955 TO 7959 7961 TO 7966 7968 TO 7973 7975 TO 7980 7982 TO 7987 7989 TO 7994 -
7996 TO 8001 8003 TO 8008 8010 TO 8015 8017 8019 TO 8023 8025 TO 8030 8032 -
8033 TO 8037 8039 TO 8044 8046 TO 8051 8053 TO 8058 8060 THICKNESS 0.25
8061 TO 8065 8067 TO 8072 8074 TO 8079 8081 TO 8086 8088 TO 8093 8095 8097 -
8098 TO 8101 8103 TO 8108 8110 TO 8115 8117 TO 8122 8124 TO 8129 8131 TO 8136 -
8138 TO 8143 8145 TO 8150 8152 TO 8157 8159 TO 8164 8166 TO 8171 8173 8175 -
8176 TO 8179 8181 TO 8186 8188 TO 8193 8195 TO 8200 8202 TO 8207 8209 TO 8214 -
8216 TO 8221 8223 TO 8228 8230 TO 8235 8237 TO 8242 8244 TO 8249 8251 8253 -
8255 8257 8259 8261 8262 8264 8266 8268 8270 8272 8273 8275 8277 8279 8281 -
8283 8284 8286 8288 8290 8292 8294 8295 8297 8299 8301 8303 8305 8306 8308 -
8310 8312 8314 8316 8317 8319 8321 8323 8325 8327 8328 8330 8332 8334 8336 -
8338 8339 8341 8343 8345 8347 8349 8350 8352 8354 8356 8358 8360 8361 8363 -
8365 8367 8369 8371 8372 8374 8376 8378 TO 8419 8421 8423 8425 8426 8428 -
8430 8432 8434 8436 8438 8440 8442 TO 8449 8451 TO 8458 8460 TO 8467 8469 -
8470 TO 8476 8478 8480 8482 8484 8486 8488 8490 8492 TO 8500 8502 TO 8509 -
8511 TO 8518 8520 TO 8527 8529 TO 8536 8538 8540 8542 8544 8546 8548 8550 -
8552 TO 8560 8562 TO 8569 8571 TO 8578 8580 TO 8587 8589 TO 8596 8598 8600 -
8602 8604 8606 8608 8610 8612 TO 8620 8622 TO 8629 8631 TO 8638 8640 TO 8647 -
8649 TO 8656 8658 8660 8662 8664 8666 8668 8670 8672 TO 8680 8682 TO 8689 -
8691 TO 8698 8700 TO 8707 8709 TO 8716 8718 8720 8722 8724 8726 8728 8730 -
8732 TO 8740 8742 TO 8749 8751 THICKNESS 0.25
8752 TO 8758 8760 TO 8767 8769 TO 8776 8778 8780 8782 8784 8786 8788 8790 -
8792 TO 8800 8802 TO 8809 8811 TO 8818 8820 TO 8827 8829 TO 8836 8838 8840 -
8842 8844 8846 8848 8850 8852 TO 8860 8862 TO 8869 8871 TO 8878 8880 TO 8887 -
8889 TO 8896 8898 8900 8902 8904 8906 8908 8910 8912 TO 8920 8922 TO 8929 -
8931 TO 8938 8940 TO 8947 8949 TO 8956 8958 8960 8962 8964 8966 8968 8970 -
8972 TO 8980 8982 TO 8989 8991 TO 8998 9000 TO 9007 9009 TO 9016 9018 9020 -
9022 9024 9026 9028 9030 9032 TO 9040 9042 TO 9049 9051 TO 9058 9060 TO 9067 -
9069 TO 9076 9078 9080 9082 9084 9086 9088 9090 9092 TO 9100 9102 TO 9109 -
9111 TO 9118 9120 TO 9128 THICKNESS 0.25
DEFINE MATERIAL START
ISOTROPIC CONCRETE
E 2.17185e+007
POISSON 0.17
DENSITY 23.5616
ALPHA 1e-005
DAMP 0.05
TYPE CONCRETE
STRENGTH FCU 27579
END DEFINE MATERIAL
MEMBER PROPERTY AMERICAN
2 TO 8 11 TO 18 20 TO 49 51 TO 58 60 TO 95 97 TO 103 226 TO 232 235 TO 242 -
244 TO 273 275 TO 282 284 TO 319 321 TO 327 390 TO 396 399 TO 406 -
408 TO 437 439 TO 446 448 TO 483 485 TO 491 554 TO 560 563 TO 570 -
572 TO 601 603 TO 610 612 TO 647 649 TO 655 718 TO 724 727 TO 734 -
736 TO 765 767 TO 774 776 TO 811 813 TO 819 882 TO 888 891 TO 898 -
900 TO 929 931 TO 938 940 TO 975 977 TO 983 1046 TO 1052 1055 TO 1062 1064 -
1065 TO 1093 1095 TO 1102 1104 TO 1139 1141 TO 1147 1210 TO 1216 1219 TO 1226 -
1228 TO 1257 1259 TO 1266 1268 TO 1303 1305 TO 1311 1374 TO 1380 -
1383 TO 1390 1392 TO 1421 1423 TO 1430 1432 TO 1467 1469 TO 1475 -
1538 TO 1544 1547 TO 1554 1556 TO 1585 1587 TO 1594 1596 TO 1631 -
1633 TO 1639 1702 TO 1708 1711 TO 1718 1720 TO 1749 1751 TO 1758 -
1760 TO 1795 1797 TO 1803 1866 TO 1872 1875 TO 1882 1884 TO 1913 -
1915 TO 1922 1924 TO 1959 1961 TO 1967 PRIS YD 0.3 ZD 0.45
107 TO 112 116 TO 123 125 TO 144 146 TO 153 157 TO 162 167 TO 172 176 TO 183 -
185 TO 204 206 TO 213 217 TO 222 331 TO 336 340 TO 347 349 TO 368 -
370 TO 377 381 TO 386 495 TO 500 504 TO 511 513 TO 532 534 TO 541 -
545 TO 550 659 TO 664 668 TO 675 677 TO 696 698 TO 705 709 TO 714 -
823 TO 828 832 TO 839 841 TO 860 862 TO 869 873 TO 878 987 TO 992 -
996 TO 1003 1005 TO 1024 1026 TO 1033 1037 TO 1042 1151 TO 1156 1160 TO 1167 -
1169 TO 1188 1190 TO 1197 1201 TO 1206 1315 TO 1320 1324 TO 1331 -
1333 TO 1352 1354 TO 1361 1365 TO 1370 1479 TO 1484 1488 TO 1495 -
1497 TO 1516 1518 TO 1525 1529 TO 1534 1643 TO 1648 1652 TO 1659 -
1661 TO 1680 1682 TO 1689 1693 TO 1698 1807 TO 1812 1816 TO 1823 -
1825 TO 1844 1846 TO 1853 1857 TO 1862 PRIS YD 0.5 ZD 0.5
CONSTANTS
MATERIAL CONCRETE ALL
SUPPORTS
61 TO 120 1667 TO 1677 2226 TO 2232 3119 TO 3129 3678 TO 3684 4571 TO 4581 -
5130 TO 5136 5990 5994 5998 6002 6006 6010 6014 6018 6022 6026 6030 6582 -
6583 TO 6588 FIXED
DEFINE 1893 LOAD
ZONE 0.1 RF 3 I 1 SS 2 ST 1 DM 0.05
SELFWEIGHT 1 
MEMBER WEIGHT
2 TO 8 20 29 30 39 40 49 97 TO 103 226 TO 232 244 253 254 263 264 273 321 -
322 TO 327 390 TO 396 408 417 418 427 428 437 485 TO 491 554 TO 560 572 581 -
582 591 592 601 649 TO 655 718 TO 724 736 745 746 755 756 765 813 TO 819 -
882 TO 888 900 909 910 919 920 929 977 TO 983 1046 TO 1052 1064 1073 1074 -
1083 1084 1093 1141 TO 1147 1210 TO 1216 1228 1237 1238 1247 1248 1257 1305 -
1306 TO 1311 1374 TO 1380 1392 1401 1402 1411 1412 1421 1469 TO 1475 1538 -
1539 TO 1544 1556 1565 1566 1575 1576 1585 1633 TO 1639 1702 TO 1708 1720 -
1729 1730 1739 1740 1749 1797 TO 1803 UNI -17.25
1866 TO 1872 1884 1893 1894 1903 1904 1913 1961 TO 1967 UNI -1.9
11 TO 18 21 TO 28 31 TO 38 41 TO 48 51 TO 58 60 TO 95 235 TO 242 245 TO 252 -
255 TO 262 265 TO 272 275 TO 282 284 TO 319 399 TO 406 409 TO 416 -
419 TO 426 429 TO 436 439 TO 446 448 TO 483 563 TO 570 573 TO 580 -
583 TO 590 593 TO 600 603 TO 610 612 TO 647 727 TO 734 737 TO 744 -
747 TO 754 757 TO 764 767 TO 774 776 TO 811 891 TO 898 901 TO 908 -
911 TO 918 921 TO 928 931 TO 938 940 TO 975 1055 TO 1062 1065 TO 1072 1075 -
1076 TO 1082 1085 TO 1092 1095 TO 1102 1104 TO 1139 1219 TO 1226 1229 TO 1236 -
1239 TO 1246 1249 TO 1256 1259 TO 1266 1268 TO 1303 1383 TO 1390 -
1393 TO 1400 1403 TO 1410 1413 TO 1420 1423 TO 1430 1432 TO 1467 -
1547 TO 1554 1557 TO 1564 1567 TO 1574 1577 TO 1584 1587 TO 1594 -
1596 TO 1631 1711 TO 1718 1721 TO 1728 1731 TO 1738 1741 TO 1748 -
1751 TO 1758 1760 TO 1795 UNI -8.625
DEFINE WIND LOAD
TYPE 1 WIND 1
INT 0.701 0.796 0.863 0.907 0.951 0.967 HEIG  10  15  20  25  30  33
EXP 1 JOINT 1 TO 6588
LOAD 1 LOADTYPE Seismic  TITLE EQ +X
1893 LOAD X 1
LOAD 2 LOADTYPE Seismic  TITLE EQ -X
1893 LOAD X -1
LOAD 3 LOADTYPE Seismic  TITLE EQ +Z
1893 LOAD Z 1
LOAD 4 LOADTYPE Seismic  TITLE EQ -Z
1893 LOAD Z -1
LOAD 5 LOADTYPE Wind  TITLE WL +X
WIND LOAD X 1 TYPE 1 YR 0 36
LOAD 6 LOADTYPE Wind  TITLE WL -X
WIND LOAD X -1 TYPE 1 YR 0 36
LOAD 7 LOADTYPE Wind  TITLE WL +Z
WIND LOAD Z 1 TYPE 1 YR 0 36
LOAD 8 LOADTYPE Wind  TITLE WL -Z
WIND LOAD Z -1 TYPE 1 YR 0 36
LOAD 9 LOADTYPE Dead  TITLE DL
SELFWEIGHT Y -1 
MEMBER LOAD
2 TO 8 20 29 30 39 40 49 97 TO 103 226 TO 232 244 253 254 263 264 273 321 -
322 TO 327 390 TO 396 408 417 418 427 428 437 485 TO 491 554 TO 560 572 581 -
582 591 592 601 649 TO 655 718 TO 724 736 745 746 755 756 765 813 TO 819 -
882 TO 888 900 909 910 919 920 929 977 TO 983 1046 TO 1052 1064 1073 1074 -
1083 1084 1093 1141 TO 1147 1210 TO 1216 1228 1237 1238 1247 1248 1257 1305 -
1306 TO 1311 1374 TO 1380 1392 1401 1402 1411 1412 1421 1469 TO 1475 1538 -
1539 TO 1544 1556 1565 1566 1575 1576 1585 1633 TO 1639 1702 TO 1708 1720 -
1729 1730 1739 1740 1749 1797 TO 1803 UNI GY -17.25
11 TO 18 21 TO 28 31 TO 38 41 TO 48 51 TO 58 60 TO 95 235 TO 242 245 TO 252 -
255 TO 262 265 TO 272 275 TO 282 284 TO 319 399 TO 406 409 TO 416 -
419 TO 426 429 TO 436 439 TO 446 448 TO 483 563 TO 570 573 TO 580 -
583 TO 590 593 TO 600 603 TO 610 612 TO 647 727 TO 734 737 TO 744 -
747 TO 754 757 TO 764 767 TO 774 776 TO 811 891 TO 898 901 TO 908 -
911 TO 918 921 TO 928 931 TO 938 940 TO 975 1055 TO 1062 1065 TO 1072 1075 -
1076 TO 1082 1085 TO 1092 1095 TO 1102 1104 TO 1139 1219 TO 1226 1229 TO 1236 -
1239 TO 1246 1249 TO 1256 1259 TO 1266 1268 TO 1303 1383 TO 1390 -
1393 TO 1400 1403 TO 1410 1413 TO 1420 1423 TO 1430 1432 TO 1467 -
1547 TO 1554 1557 TO 1564 1567 TO 1574 1577 TO 1584 1587 TO 1594 -
1596 TO 1631 1711 TO 1718 1721 TO 1728 1731 TO 1738 1741 TO 1748 -
1751 TO 1758 1760 TO 1795 UNI GY -8.625
1866 TO 1872 1884 1893 1894 1903 1904 1913 1961 TO 1967 UNI GY -1.9
FLOOR LOAD
YRANGE 0 36 FLOAD -1 GY
LOAD 10 LOADTYPE Live  TITLE LL
FLOOR LOAD
YRANGE 0 36 FLOAD -2 GY
LOAD COMB 11 GENERATED INDIAN CODE GENRAL_STRUCTURES 1
9 1.5 10 1.5 
LOAD COMB 12 GENERATED INDIAN CODE GENRAL_STRUCTURES 2
9 1.2 10 1.2 5 1.2 
LOAD COMB 13 GENERATED INDIAN CODE GENRAL_STRUCTURES 3
9 1.2 10 1.2 6 1.2 
LOAD COMB 14 GENERATED INDIAN CODE GENRAL_STRUCTURES 4
9 1.2 10 1.2 7 1.2 
LOAD COMB 15 GENERATED INDIAN CODE GENRAL_STRUCTURES 5
9 1.2 10 1.2 8 1.2 
LOAD COMB 16 GENERATED INDIAN CODE GENRAL_STRUCTURES 6
9 1.2 10 1.2 5 -1.2 
LOAD COMB 17 GENERATED INDIAN CODE GENRAL_STRUCTURES 7
9 1.2 10 1.2 6 -1.2 
LOAD COMB 18 GENERATED INDIAN CODE GENRAL_STRUCTURES 8
9 1.2 10 1.2 7 -1.2 
LOAD COMB 19 GENERATED INDIAN CODE GENRAL_STRUCTURES 9
9 1.2 10 1.2 8 -1.2 
LOAD COMB 20 GENERATED INDIAN CODE GENRAL_STRUCTURES 10
9 1.2 10 1.2 1 1.2 
LOAD COMB 21 GENERATED INDIAN CODE GENRAL_STRUCTURES 11
9 1.2 10 1.2 2 1.2 
LOAD COMB 22 GENERATED INDIAN CODE GENRAL_STRUCTURES 12
9 1.2 10 1.2 3 1.2 
LOAD COMB 23 GENERATED INDIAN CODE GENRAL_STRUCTURES 13
9 1.2 10 1.2 4 1.2 
LOAD COMB 24 GENERATED INDIAN CODE GENRAL_STRUCTURES 14
9 1.2 10 1.2 1 -1.2 
LOAD COMB 25 GENERATED INDIAN CODE GENRAL_STRUCTURES 15
9 1.2 10 1.2 2 -1.2 
LOAD COMB 26 GENERATED INDIAN CODE GENRAL_STRUCTURES 16
9 1.2 10 1.2 3 -1.2 
LOAD COMB 27 GENERATED INDIAN CODE GENRAL_STRUCTURES 17
9 1.2 10 1.2 4 -1.2 
LOAD COMB 28 GENERATED INDIAN CODE GENRAL_STRUCTURES 18
9 1.5 5 1.5 
LOAD COMB 29 GENERATED INDIAN CODE GENRAL_STRUCTURES 19
9 1.5 6 1.5 
LOAD COMB 30 GENERATED INDIAN CODE GENRAL_STRUCTURES 20
9 1.5 7 1.5 
# ... 42 like lines cut
PERFORM ANALYSIS PRINT ALL
START CONCRETE DESIGN
CODE INDIAN
UNIT MMS NEWTON
FC 30 ALL
FYMAIN 550 ALL
FYSEC 415 ALL
MAXMAIN 25 ALL
MAXSEC 16 ALL
MINMAIN 12 ALL
MINSEC 8 ALL
DESIGN BEAM 2 TO 8 11 TO 18 20 TO 49 51 TO 58 60 TO 95 97 TO 103 226 TO 232 -
235 TO 242 244 TO 273 275 TO 282 284 TO 319 321 TO 327 390 TO 396 -
399 TO 406 408 TO 437 439 TO 446 448 TO 483 485 TO 491 554 TO 560 -
563 TO 570 572 TO 601 603 TO 610 612 TO 647 649 TO 655 718 TO 724 -
727 TO 734 736 TO 765 767 TO 774 776 TO 811 813 TO 819 882 TO 888 -
891 TO 898 900 TO 929 931 TO 938 940 TO 975 977 TO 983 1046 TO 1052 1055 -
1056 TO 1062 1064 TO 1093 1095 TO 1102 1104 TO 1139 1141 TO 1147 1210 TO 1216 -
1219 TO 1226 1228 TO 1257 1259 TO 1266 1268 TO 1303 1305 TO 1311 -
1374 TO 1380 1383 TO 1390 1392 TO 1421 1423 TO 1430 1432 TO 1467 -
1469 TO 1475 1538 TO 1544 1547 TO 1554 1556 TO 1585 1587 TO 1594 -
1596 TO 1631 1633 TO 1639 1702 TO 1708 1711 TO 1718 1720 TO 1749 -
1751 TO 1758 1760 TO 1795 1797 TO 1803 1866 TO 1872 1875 TO 1882 -
1884 TO 1913 1915 TO 1922 1924 TO 1959 1961 TO 1967
DESIGN COLUMN 107 TO 112 116 TO 123 125 TO 144 146 TO 153 157 TO 162 -
167 TO 172 176 TO 183 185 TO 204 206 TO 213 217 TO 222 331 TO 336 -
340 TO 347 349 TO 368 370 TO 377 381 TO 386 495 TO 500 504 TO 511 -
513 TO 532 534 TO 541 545 TO 550 659 TO 664 668 TO 675 677 TO 696 -
698 TO 705 709 TO 714 823 TO 828 832 TO 839 841 TO 860 862 TO 869 -
873 TO 878 987 TO 992 996 TO 1003 1005 TO 1024 1026 TO 1033 1037 TO 1042 -
1151 TO 1156 1160 TO 1167 1169 TO 1188 1190 TO 1197 1201 TO 1206 -
1315 TO 1320 1324 TO 1331 1333 TO 1352 1354 TO 1361 1365 TO 1370 -
1479 TO 1484 1488 TO 1495 1497 TO 1516 1518 TO 1525 1529 TO 1534 -
1643 TO 1648 1652 TO 1659 1661 TO 1680 1682 TO 1689 1693 TO 1698 -
1807 TO 1812 1816 TO 1823 1825 TO 1844 1846 TO 1853 1857 TO 1862
DESIGN ELEMENT 1971 1973 1975 1977 1979 1981 1983 1985 1987 1989 1991 1993 -
1995 TO 2005 2007 2009 TO 2019 2021 2023 TO 2033 2035 2037 TO 2047 2049 2051 -
2053 2055 2057 2059 2061 2063 2065 2067 2069 2071 2072 2074 TO 2084 2086 -
2088 TO 2098 2100 2102 TO 2112 2114 2116 TO 2126 2128 2130 TO 2140 2142 2144 -
2146 2148 2150 2152 2154 2156 2158 2160 2162 2164 2165 2167 TO 2177 2179 -
2181 TO 2191 2193 2195 TO 2205 2207 2209 TO 2219 2221 2223 TO 2233 2235 2237 -
2239 2241 2243 2245 2247 2249 2251 2253 2255 2257 2258 2260 TO 2270 2272 -
2274 TO 2284 2286 2288 TO 2298 2300 2302 TO 2312 2314 2316 TO 2326 2328 2330 -
2332 2334 2336 2338 2340 2342 2344 2346 2348 2350 2351 2353 TO 2363 2365 -
2367 TO 2377 2379 2381 TO 2391 2393 2395 TO 2405 2407 2409 TO 2419 2421 2423 -
2425 2427 2429 2431 2433 2435 2437 2439 2441 2443 2444 2446 TO 2456 2458 -
2460 TO 2470 2472 2474 TO 2484 2486 2488 TO 2498 2500 2502 TO 2512 2514 2516 -
2518 2520 2522 2524 2526 2528 2530 2532 2534 2536 2537 2539 TO 2549 2551 -
2553 TO 2563 2565 2567 TO 2577 2579 2581 TO 2591 2593 2595 TO 2605 2607 2609 -
2611 2613 2615 2617 2619 2621 2623 2625 2627 2629 2630 2632 TO 2642 2644 -
2646 TO 2656 2658 2660 TO 2670 2672 2674 TO 2684 2686 2688 TO 2698 2700 2702 -
2704 2706 2708 2710 2712 2714 2716 2718 2720 2722 2723 2725 TO 2735 2737 -
2739 TO 2749 2751 2753 TO 2763 2765 2767 TO 2777 2779
DESIGN ELEMENT 2781 TO 2791 2793 2795 2797 2799 2801 2803 2805 2807 2809 2811 -
2813 2815 2816 2818 TO 2828 2830 2832 TO 2842 2844 2846 TO 2856 2858 2860 -
2861 TO 2870 2872 2874 TO 2884 2886 2888 2890 2892 2894 2896 2898 2900 2902 -
2904 2906 2908 2909 2911 TO 2921 2923 2925 TO 2935 2937 2939 TO 2949 2951 -
2953 TO 2963 2965 2967 TO 2977 2979 2981 2983 2985 2987 2989 2991 2993 2995 -
2997 2999 3001 3002 3004 TO 3014 3016 3018 TO 3028 3030 3032 TO 3042 3044 -
3045 TO 3056 3058 3060 3062 3064 3066 3068 3070 3072 TO 3079 3081 TO 3088 -
3090 TO 3097 3099 TO 3106 3108 3110 3112 3114 3116 3118 3120 3122 TO 3130 -
3132 TO 3139 3141 TO 3148 3150 TO 3157 3159 TO 3166 3168 3170 3172 3174 3176 -
3178 3180 3182 TO 3190 3192 TO 3199 3201 TO 3208 3210 TO 3217 3219 TO 3226 -
3228 3230 3232 3234 3236 3238 3240 3242 TO 3250 3252 TO 3259 3261 TO 3268 -
3270 TO 3277 3279 TO 3286 3288 3290 3292 3294 3296 3298 3300 3302 TO 3310 -
3312 TO 3319 3321 TO 3328 3330 TO 3337 3339 TO 3346 3348 3350 3352 3354 3356 -
3358 3360 3362 TO 3370 3372 TO 3379 3381 TO 3388 3390 TO 3397 3399 TO 3406 -
3408 3410 3412 3414 3416 3418 3420 3422 TO 3430 3432 TO 3439 3441 TO 3448 -
3450 TO 3457 3459 TO 3466 3468 3470 3472 3474 3476 3478 3480 3482 TO 3490 -
3492 TO 3499 3501 TO 3508 3510 TO 3517 3519 TO 3526 3528 3530 3532 3534 3536 -
3538 3540 3542 TO 3550 3552 TO 3559
DESIGN ELEMENT 3561 TO 3568 3570 TO 3577 3579 TO 3586 3588 3590 3592 3594 -
3596 3598 3600 3602 TO 3610 3612 TO 3619 3621 TO 3628 3630 TO 3637 -
3639 TO 3646 3648 3650 3652 3654 3656 3658 3660 3662 TO 3670 3672 TO 3679 -
3681 TO 3688 3690 TO 3697 3699 TO 3706 3708 3710 3712 3714 3716 3718 3720 -
3722 TO 3730 3732 TO 3739 3741 TO 3748 3750 TO 3758 3761 3763 3765 3767 3769 -
3771 3773 3775 3777 3779 3781 3783 3785 TO 3795 3797 3799 TO 3809 3811 3813 -
3814 TO 3823 3825 3827 TO 3837 3839 3841 3843 3845 3847 3849 3851 3853 3855 -
3857 3859 3861 3862 3864 TO 3874 3876 3878 TO 3888 3890 3892 TO 3902 3904 -
3906 TO 3916 3918 3920 TO 3930 3932 3934 3936 3938 3940 3942 3944 3946 3948 -
3950 3952 3954 3955 3957 TO 3967 3969 3971 TO 3981 3983 3985 TO 3995 3997 -
3999 TO 4009 4011 4013 TO 4023 4025 4027 4029 4031 4033 4035 4037 4039 4041 -
4043 4045 4047 4048 4050 TO 4060 4062 4064 TO 4074 4076 4078 TO 4088 4090 -
4092 TO 4102 4104 4106 TO 4116 4118 4120 4122 4124 4126 4128 4130 4132 4134 -
4136 4138 4140 4141 4143 TO 4153 4155 4157 TO 4167 4169 4171 TO 4181 4183 -
4185 TO 4195 4197 4199 TO 4209 4211 4213 4215 4217 4219 4221 4223 4225 4227 -
4229 4231 4233 4234 4236 TO 4246 4248 4250 TO 4260 4262 4264 TO 4274 4276 -
4278 TO 4288 4290 4292 TO 4302 4304 4306 4308 4310 4312 4314 4316 4318 4320 -
4322 4324 4326 4327 4329 TO 4339 4341 4343 TO 4353 4355
DESIGN ELEMENT 4357 TO 4367 4369 4371 TO 4381 4383 4385 TO 4395 4397 4399 -
4401 4403 4405 4407 4409 4411 4413 4415 4417 4419 4420 4422 TO 4432 4434 -
4436 TO 4446 4448 4450 TO 4460 4462 4464 TO 4474 4476 4478 TO 4488 4490 4492 -
4494 4496 4498 4500 4502 4504 4506 4508 4510 4512 4513 4515 TO 4525 4527 -
4529 TO 4539 4541 4543 TO 4553 4555 4557 TO 4567 4569 4571 TO 4581 4583 4585 -
4587 4589 4591 4593 4595 4597 4599 4601 4603 4605 4606 4608 TO 4618 4620 -
4622 TO 4632 4634 4636 TO 4646 4648 4650 TO 4660 4662 4664 TO 4674 4676 4678 -
4680 4682 4684 4686 4688 4690 4692 4694 4696 4698 4699 4701 TO 4711 4713 -
4715 TO 4725 4727 4729 TO 4739 4741 4743 TO 4753 4755 4757 TO 4767 4769 4771 -
4773 4775 4777 4779 4781 4783 4785 4787 4789 4791 4792 4794 TO 4804 4806 -
4808 TO 4818 4820 4822 TO 4832 4834 TO 4846 4849 4851 4853 4855 4857 4859 -
4861 4862 4864 TO 4871 4873 TO 4880 4882 TO 4889 4891 TO 4898 4900 4902 4904 -
4906 4908 4910 4912 4913 4915 TO 4922 4924 TO 4931 4933 TO 4940 4942 TO 4949 -
4951 TO 4958 4960 4962 4964 4966 4968 4970 4972 4973 4975 TO 4982 -
4984 TO 4991 4993 TO 5000 5002 TO 5009 5011 TO 5018 5020 5022 5024 5026 5028 -
5030 5032 5033 5035 TO 5042 5044 TO 5051 5053 TO 5060 5062 TO 5069 -
5071 TO 5078 5080 5082 5084 5086 5088 5090 5092 5093 5095 TO 5102 -
5104 TO 5111 5113 TO 5120 5122 TO 5129 5131 TO 5138 5140 5142
DESIGN ELEMENT 5144 5146 5148 5150 5152 5153 5155 TO 5162 5164 TO 5171 5173 -
5174 TO 5180 5182 TO 5189 5191 TO 5198 5200 5202 5204 5206 5208 5210 5212 -
5213 5215 TO 5222 5224 TO 5231 5233 TO 5240 5242 TO 5249 5251 TO 5258 5260 -
5262 5264 5266 5268 5270 5272 5273 5275 TO 5282 5284 TO 5291 5293 TO 5300 -
5302 TO 5309 5311 TO 5318 5320 5322 5324 5326 5328 5330 5332 5333 -
5335 TO 5342 5344 TO 5351 5353 TO 5360 5362 TO 5369 5371 TO 5378 5380 5382 -
5384 5386 5388 5390 5392 5393 5395 TO 5402 5404 TO 5411 5413 TO 5420 5422 -
5423 TO 5429 5431 TO 5438 5440 5442 5444 5446 5448 5450 5452 5453 -
5455 TO 5462 5464 TO 5471 5473 TO 5480 5482 TO 5489 5491 TO 5498 5500 5502 -
5504 5506 5508 5510 5512 5513 5515 TO 5522 5524 TO 5531 5533 TO 5548 5551 -
5553 5555 5557 5559 5561 5563 5565 5567 5569 5571 5573 5575 TO 5585 5587 -
5589 TO 5599 5601 5603 TO 5613 5615 5617 TO 5627 5629 5631 5633 5635 5637 -
5639 5641 5643 5645 5647 5649 5651 5652 5654 TO 5664 5666 5668 TO 5678 5680 -
5682 TO 5692 5694 5696 TO 5706 5708 5710 TO 5720 5722 5724 5726 5728 5730 -
5732 5734 5736 5738 5740 5742 5744 5745 5747 TO 5757 5759 5761 TO 5771 5773 -
5775 TO 5785 5787 5789 TO 5799 5801 5803 TO 5813 5815 5817 5819 5821 5823 -
5825 5827 5829 5831 5833 5835 5837 5838 5840 TO 5850 5852 5854 TO 5864 5866 -
5868 TO 5878 5880 5882 TO 5892 5894 5896 TO 5906 5908 5910 5912 5914
DESIGN ELEMENT 5916 5918 5920 5922 5924 5926 5928 5930 5931 5933 TO 5943 5945 -
5947 TO 5957 5959 5961 TO 5971 5973 5975 TO 5985 5987 5989 TO 5999 6001 6003 -
6005 6007 6009 6011 6013 6015 6017 6019 6021 6023 6024 6026 TO 6036 6038 -
6040 TO 6050 6052 6054 TO 6064 6066 6068 TO 6078 6080 6082 TO 6092 6094 6096 -
6098 6100 6102 6104 6106 6108 6110 6112 6114 6116 6117 6119 TO 6129 6131 -
6133 TO 6143 6145 6147 TO 6157 6159 6161 TO 6171 6173 6175 TO 6185 6187 6189 -
6191 6193 6195 6197 6199 6201 6203 6205 6207 6209 6210 6212 TO 6222 6224 -
6226 TO 6236 6238 6240 TO 6250 6252 6254 TO 6264 6266 6268 TO 6278 6280 6282 -
6284 6286 6288 6290 6292 6294 6296 6298 6300 6302 6303 6305 TO 6315 6317 -
6319 TO 6329 6331 6333 TO 6343 6345 6347 TO 6357 6359 6361 TO 6371 6373 6375 -
6377 6379 6381 6383 6385 6387 6389 6391 6393 6395 6396 6398 TO 6408 6410 -
6412 TO 6422 6424 6426 TO 6436 6438 6440 TO 6450 6452 6454 TO 6464 6466 6468 -
6470 6472 6474 6476 6478 6480 6482 6484 6486 6488 6489 6491 TO 6501 6503 -
6505 TO 6515 6517 6519 TO 6529 6531 6533 TO 6543 6545 6547 TO 6557 6559 6561 -
6563 6565 6567 6569 6571 6573 6575 6577 6579 6581 6582 6584 TO 6594 6596 -
6598 TO 6608 6610 6612 TO 6622 6624 TO 6636 6639 6641 6643 6645 6647 6649 -
6651 6652 6654 TO 6661 6663 TO 6670 6672 TO 6679 6681 TO 6688 6690 6692 6694 -
6696 6698 6700 6702 6703 6705 TO 6712 6714
DESIGN ELEMENT 6715 TO 6721 6723 TO 6730 6732 TO 6739 6741 TO 6748 6750 6752 -
6754 6756 6758 6760 6762 6763 6765 TO 6772 6774 TO 6781 6783 TO 6790 6792 -
6793 TO 6799 6801 TO 6808 6810 6812 6814 6816 6818 6820 6822 6823 -
6825 TO 6832 6834 TO 6841 6843 TO 6850 6852 TO 6859 6861 TO 6868 6870 6872 -
6874 6876 6878 6880 6882 6883 6885 TO 6892 6894 TO 6901 6903 TO 6910 6912 -
6913 TO 6919 6921 TO 6928 6930 6932 6934 6936 6938 6940 6942 6943 -
6945 TO 6952 6954 TO 6961 6963 TO 6970 6972 TO 6979 6981 TO 6988 6990 6992 -
6994 6996 6998 7000 7002 7003 7005 TO 7012 7014 TO 7021 7023 TO 7030 7032 -
7033 TO 7039 7041 TO 7048 7050 7052 7054 7056 7058 7060 7062 7063 -
7065 TO 7072 7074 TO 7081 7083 TO 7090 7092 TO 7099 7101 TO 7108 7110 7112 -
7114 7116 7118 7120 7122 7123 7125 TO 7132 7134 TO 7141 7143 TO 7150 7152 -
7153 TO 7159 7161 TO 7168 7170 7172 7174 7176 7178 7180 7182 7183 -
7185 TO 7192 7194 TO 7201 7203 TO 7210 7212 TO 7219 7221 TO 7228 7230 7232 -
7234 7236 7238 7240 7242 7243 7245 TO 7252 7254 TO 7261 7263 TO 7270 7272 -
7273 TO 7279 7281 TO 7288 7290 7292 7294 7296 7298 7300 7302 7303 -
7305 TO 7312 7314 TO 7321 7323 TO 7338 7341 7343 7345 7347 7349 7351 7353 -
7355 7357 7359 7361 7363 7365 7367 7369 7371 7373 7375 7377 7379 7381 7383 -
7385 7387 7389 7391 7393 7395 7397 7399 7401 7403 7405 7407 7409 7411 7413 -
7415 7417 7419 7421 7423 7425 7427
DESIGN ELEMENT 7429 7431 7433 7435 7437 7439 7441 7443 7445 7447 7449 7451 -
7453 7455 7457 7459 7461 7463 7465 7467 7469 7471 7473 TO 7477 7479 TO 7484 -
7486 TO 7491 7493 TO 7498 7500 TO 7505 7507 TO 7512 7514 TO 7519 -
7521 TO 7526 7528 TO 7533 7535 TO 7540 7542 TO 7547 7549 7551 TO 7555 7557 -
7558 TO 7562 7564 TO 7569 7571 TO 7576 7578 TO 7583 7585 TO 7590 7592 TO 7597 -
7599 TO 7604 7606 TO 7611 7613 TO 7618 7620 TO 7625 7627 7629 TO 7633 7635 -
7636 TO 7640 7642 TO 7647 7649 TO 7654 7656 TO 7661 7663 TO 7668 7670 TO 7675 -
7677 TO 7682 7684 TO 7689 7691 TO 7696 7698 TO 7703 7705 7707 TO 7711 7713 -
7714 TO 7718 7720 TO 7725 7727 TO 7732 7734 TO 7739 7741 TO 7746 7748 TO 7753 -
7755 TO 7760 7762 TO 7767 7769 TO 7774 7776 TO 7781 7783 7785 TO 7789 7791 -
7792 TO 7796 7798 TO 7803 7805 TO 7810 7812 TO 7817 7819 TO 7824 7826 TO 7831 -
7833 TO 7838 7840 TO 7845 7847 TO 7852 7854 TO 7859 7861 7863 TO 7867 7869 -
7870 TO 7874 7876 TO 7881 7883 TO 7888 7890 TO 7895 7897 TO 7902 7904 TO 7909 -
7911 TO 7916 7918 TO 7923 7925 TO 7930 7932 TO 7937 7939 7941 TO 7945 7947 -
7948 TO 7952 7954 TO 7959 7961 TO 7966 7968 TO 7973 7975 TO 7980 7982 TO 7987 -
7989 TO 7994 7996 TO 8001 8003 TO 8008 8010 TO 8015 8017 8019 TO 8023 8025 -
8026 TO 8030 8032 TO 8037 8039 TO 8044 8046 TO 8051 8053 TO 8058 8060
DESIGN ELEMENT 8061 TO 8065 8067 TO 8072 8074 TO 8079 8081 TO 8086 -
8088 TO 8093 8095 8097 TO 8101 8103 TO 8108 8110 TO 8115 8117 TO 8122 8124 -
8125 TO 8129 8131 TO 8136 8138 TO 8143 8145 TO 8150 8152 TO 8157 8159 TO 8164 -
8166 TO 8171 8173 8175 TO 8179 8181 TO 8186 8188 TO 8193 8195 TO 8200 8202 -
8203 TO 8207 8209 TO 8214 8216 TO 8221 8223 TO 8228 8230 TO 8235 8237 TO 8242 -
8244 TO 8249 8251 8253 8255 8257 8259 8261 8262 8264 8266 8268 8270 8272 -
8273 8275 8277 8279 8281 8283 8284 8286 8288 8290 8292 8294 8295 8297 8299 -
8301 8303 8305 8306 8308 8310 8312 8314 8316 8317 8319 8321 8323 8325 8327 -
8328 8330 8332 8334 8336 8338 8339 8341 8343 8345 8347 8349 8350 8352 8354 -
8356 8358 8360 8361 8363 8365 8367 8369 8371 8372 8374 8376 8378 TO 8419 -
8421 8423 8425 8426 8428 8430 8432 8434 8436 8438 8440 8442 TO 8449 8451 -
8452 TO 8458 8460 TO 8467 8469 TO 8476 8478 8480 8482 8484 8486 8488 8490 -
8492 TO 8500 8502 TO 8509 8511 TO 8518 8520 TO 8527 8529 TO 8536 8538 8540 -
8542 8544 8546 8548 8550 8552 TO 8560 8562 TO 8569 8571 TO 8578 8580 TO 8587 -
8589 TO 8596 8598 8600 8602 8604 8606 8608 8610 8612 TO 8620 8622 TO 8629 -
8631 TO 8638 8640 TO 8647 8649 TO 8656 8658 8660 8662 8664 8666 8668 8670 -
8672 TO 8680 8682 TO 8689 8691 TO 8698 8700 TO 8707 8709 TO 8716 8718 8720 -
8722 8724 8726 8728 8730 8732 TO 8740 8742 TO 8749 8751
DESIGN ELEMENT 8752 TO 8758 8760 TO 8767 8769 TO 8776 8778 8780 8782 8784 8786 -
8788 8790 8792 TO 8800 8802 TO 8809 8811 TO 8818 8820 TO 8827 8829 TO 8836 -
8838 8840 8842 8844 8846 8848 8850 8852 TO 8860 8862 TO 8869 8871 TO 8878 -
8880 TO 8887 8889 TO 8896 8898 8900 8902 8904 8906 8908 8910 8912 TO 8920 -
8922 TO 8929 8931 TO 8938 8940 TO 8947 8949 TO 8956 8958 8960 8962 8964 8966 -
8968 8970 8972 TO 8980 8982 TO 8989 8991 TO 8998 9000 TO 9007 9009 TO 9016 -
9018 9020 9022 9024 9026 9028 9030 9032 TO 9040 9042 TO 9049 9051 TO 9058 -
9060 TO 9067 9069 TO 9076 9078 9080 9082 9084 9086 9088 9090 9092 TO 9100 -
9102 TO 9109 9111 TO 9118 9120 TO 9128
CONCRETE TAKE
END CONCRETE DESIGN
PRINT STORY DRIFT 0.025000
FINISH
