STAAD SPACE
START JOB INFORMATION
ENGINEER DATE 11-Jul-24
END JOB INFORMATION
INPUT WIDTH 79
UNIT MMS NEWTON
JOINT COORDINATES
721 0 -2100 0; 722 6000 -2100 0; 723 12000 -2100 0; 724 18000 -2100 0;
725 24000 -2100 0; 726 30000 -2100 0; 727 36000 -2100 0; 728 42000 -2100 0;
729 48000 -2100 0; 730 54000 -2100 0; 731 0 -2100 4000; 732 6000 -2100 4000;
733 12000 -2100 4000; 734 18000 -2100 4000; 735 24000 -2100 4000;
736 30000 -2100 4000; 737 36000 -2100 4000; 738 42000 -2100 4000;
739 48000 -2100 4000; 740 54000 -2100 4000; 741 0 -2100 8000;
742 6000 -2100 8000; 743 12000 -2100 8000; 744 18000 -2100 8000;
745 24000 -2100 8000; 746 30000 -2100 8000; 747 36000 -2100 8000;
748 42000 -2100 8000; 749 48000 -2100 8000; 750 54000 -2100 8000;
751 0 -2100 12000; 752 6000 -2100 12000; 753 12000 -2100 12000;
754 18000 -2100 12000; 755 24000 -2100 12000; 756 30000 -2100 12000;
757 36000 -2100 12000; 758 42000 -2100 12000; 759 48000 -2100 12000;
760 54000 -2100 12000; 761 0 -2100 16000; 762 6000 -2100 16000;
763 12000 -2100 16000; 764 18000 -2100 16000; 765 24000 -2100 16000;
766 30000 -2100 16000; 767 36000 -2100 16000; 768 42000 -2100 16000;
769 48000 -2100 16000; 770 54000 -2100 16000; 771 0 -2100 20000;
772 6000 -2100 20000; 773 12000 -2100 20000; 774 18000 -2100 20000;
775 24000 -2100 20000; 776 30000 -2100 20000; 777 36000 -2100 20000;
778 42000 -2100 20000; 779 48000 -2100 20000; 780 54000 -2100 20000;
781 -2000 -2100 -2000; 782 56000 -2100 -2000; 783 56000 -2100 22000;
# ... 480 like lines cut
ELEMENT INCIDENCES SHELL
1 781 785 786 787; 2 785 788 789 786; 3 788 790 791 789; 4 790 792 793 791;
5 792 794 795 793; 6 794 796 797 795; 7 796 798 799 797; 8 798 800 801 799;
9 800 802 803 801; 10 802 804 805 803; 11 804 806 807 805; 12 806 808 809 807;
13 808 810 811 809; 14 810 812 813 811; 15 812 814 815 813; 16 814 816 817 815;
17 816 818 819 817; 18 818 820 821 819; 19 820 822 823 821; 20 822 824 825 823;
21 824 826 827 825; 22 826 828 829 827; 23 828 830 831 829; 24 830 832 833 831;
25 832 834 835 833; 26 834 836 837 835; 27 836 838 839 837; 28 838 840 841 839;
29 840 842 843 841; 30 842 844 845 843; 31 844 846 847 845; 32 846 848 849 847;
33 848 850 851 849; 34 850 852 853 851; 35 852 854 855 853; 36 854 856 857 855;
37 856 858 859 857; 38 858 860 861 859; 39 860 862 863 861; 40 862 864 865 863;
41 864 866 867 865; 42 866 868 869 867; 43 868 870 871 869; 44 870 872 873 871;
45 872 874 875 873; 46 874 876 877 875; 47 876 878 879 877; 48 878 880 881 879;
49 880 882 883 881; 50 882 884 885 883; 51 884 886 887 885; 52 886 888 889 887;
53 888 890 891 889; 54 890 892 893 891; 55 892 894 895 893; 56 894 896 897 895;
57 896 898 899 897; 58 898 782 900 899; 59 787 786 901 902; 60 786 789 721 901;
61 789 791 903 721; 62 791 793 904 903; 63 793 795 905 904; 64 795 797 906 905;
65 797 799 907 906; 66 799 801 722 907; 67 801 803 908 722; 68 803 805 909 908;
69 805 807 910 909; 70 807 809 911 910; 71 809 811 912 911; 72 811 813 723 912;
73 813 815 913 723; 74 815 817 914 913; 75 817 819 915 914; 76 819 821 916 915;
77 821 823 917 916; 78 823 825 724 917; 79 825 827 918 724; 80 827 829 919 918;
# ... 436 like lines cut
UNIT METER KN
ELEMENT PROPERTY
1 TO 1392 THICKNESS 0.6
DEFINE MATERIAL START
ISOTROPIC CONCRETE
E 2.17185e+007
POISSON 0.17
DENSITY 23.5616
ALPHA 1e-005
DAMP 0.05
TYPE CONCRETE
STRENGTH FCU 27579
END DEFINE MATERIAL
CONSTANTS
MATERIAL CONCRETE ALL
SUPPORTS
1 TO 1392 PLATE MAT DIRECT YONLY SUBGRADE 24000 PRINT
LOAD 1 LOADTYPE Dead  TITLE DL
SELFWEIGHT Y -1 
LOAD 2 LOADTYPE Live REDUCIBLE TITLE 1DL+1LL
JOINT LOAD
721 FX -24.851 FY -1609.13 FZ -10.531 MX -6.876 MY 0 MZ 16.215
722 FX 0.005 FY -2294.85 FZ -8.504 MX -5.564 MY 0 MZ 0.127
723 FX -0.115 FY -2308.6 FZ -8.487 MX -5.554 MY 0 MZ 0.156
724 FX -0.055 FY -2308.69 FZ -8.486 MX -5.554 MY 0 MZ 0.08
725 FX -0.017 FY -2308.69 FZ -8.486 MX -5.554 MY 0 MZ 0.025
726 FX 0.017 FY -2308.69 FZ -8.486 MX -5.554 MY 0 MZ -0.025
727 FX 0.055 FY -2308.69 FZ -8.486 MX -5.554 MY 0 MZ -0.08
728 FX 0.115 FY -2308.6 FZ -8.487 MX -5.554 MY 0 MZ -0.156
729 FX -0.005 FY -2294.85 FZ -8.504 MX -5.564 MY 0 MZ -0.127
730 FX 24.851 FY -1609.13 FZ -10.531 MX -6.876 MY 0 MZ -16.215
731 FX -21.323 FY -1944.72 FZ -0.086 MX -0.111 MY 0 MZ 13.93
732 FX -0.041 FY -2637.85 FZ -0.129 MX -0.137 MY 0 MZ 0.154
733 FX -0.109 FY -2652.27 FZ -0.13 MX -0.138 MY 0 MZ 0.15
734 FX -0.053 FY -2652.37 FZ -0.13 MX -0.138 MY 0 MZ 0.078
735 FX -0.016 FY -2652.36 FZ -0.13 MX -0.138 MY 0 MZ 0.025
736 FX 0.016 FY -2652.36 FZ -0.13 MX -0.138 MY 0 MZ -0.025
737 FX 0.053 FY -2652.37 FZ -0.13 MX -0.138 MY 0 MZ -0.078
738 FX 0.109 FY -2652.27 FZ -0.13 MX -0.138 MY 0 MZ -0.15
739 FX 0.041 FY -2637.85 FZ -0.129 MX -0.137 MY 0 MZ -0.154
740 FX 21.323 FY -1944.72 FZ -0.086 MX -0.111 MY 0 MZ -13.93
# ... 40 like lines cut
LOAD COMBINATION 3
1 1.0 2 1.0 
LOAD COMB 4 COMBINATION LOAD CASE 4
2 1.5 
PERFORM ANALYSIS
START CONCRETE DESIGN
CODE INDIAN
CLEAR 0.05 ALL
FC 25000 ALL
FYMAIN 415000 ALL
DESIGN ELEMENT 1 TO 1392
END CONCRETE DESIGN
FINISH
